<?xml version="1.0" encoding="UTF-8"?>

<!-- generated on Sun May 23 17:07:28 2021 by Eclipse SUMO duarouter Version 1.9.0
<configuration xmlns:xsi="http://www.w3.org/2001/XMLSchema-instance" xsi:noNamespaceSchemaLocation="http://sumo.dlr.de/xsd/duarouterConfiguration.xsd">

    <input>
        <net-file value="grid4x4.net.xml"/>
        <route-files value="./trips/grid4x4_609.trips.xml"/>
    </input>

    <output>
        <output-file value="./routes/grid4x4_609.rou.xml"/>
        <alternatives-output value="./routes/grid4x4_609.rou.alt.xml"/>
    </output>

</configuration>
-->

<routes xmlns:xsi="http://www.w3.org/2001/XMLSchema-instance" xsi:noNamespaceSchemaLocation="http://sumo.dlr.de/xsd/routes_file.xsd">
    <vehicle id="0" depart="1.00">
        <route edges="top0A3 A3A2 A2B2 B2C2 C2D2 D2D1 D1D0 D0bottom3"/>
    </vehicle>
    <vehicle id="1" depart="1.00">
        <route edges="left2A2 A2A1 A1A0 A0left0"/>
    </vehicle>
    <vehicle id="2" depart="15.00">
        <route edges="top0A3 A3A2 A2B2 B2C2 C2C1 C1C0 C0bottom2"/>
    </vehicle>
    <vehicle id="3" depart="20.00">
        <route edges="right1D1 D1C1 C1C0 C0B0 B0A0 A0left0"/>
    </vehicle>
    <vehicle id="4" depart="27.00">
        <route edges="top1B3 B3C3 C3D3 D3top3"/>
    </vehicle>
    <vehicle id="5" depart="29.00">
        <route edges="bottom3D0 D0D1 D1C1 C1B1 B1A1 A1A2 A2A3 A3top0"/>
    </vehicle>
    <vehicle id="6" depart="33.00">
        <route edges="left2A2 A2B2 B2C2 C2C3 C3top2"/>
    </vehicle>
    <vehicle id="7" depart="34.00">
        <route edges="right1D1 D1C1 C1C2 C2C3 C3top2"/>
    </vehicle>
    <vehicle id="8" depart="39.00">
        <route edges="bottom0A0 A0B0 B0B1 B1B2 B2B3 B3top1"/>
    </vehicle>
    <vehicle id="9" depart="40.00">
        <route edges="left3A3 A3B3 B3B2 B2A2 A2A3 A3left3"/>
    </vehicle>
    <vehicle id="10" depart="40.00">
        <route edges="left3A3 A3top0"/>
    </vehicle>
    <vehicle id="11" depart="61.00">
        <route edges="top1B3 B3C3 C3D3 D3right3"/>
    </vehicle>
    <vehicle id="12" depart="65.00">
        <route edges="top1B3 B3C3 C3D3 D3top3"/>
    </vehicle>
    <vehicle id="13" depart="66.00">
        <route edges="right2D2 D2D1 D1D0 D0bottom3"/>
    </vehicle>
    <vehicle id="14" depart="73.00">
        <route edges="top3D3 D3D2 D2D1 D1D0 D0C0 C0B0 B0A0 A0left0"/>
    </vehicle>
    <vehicle id="15" depart="74.00">
        <route edges="bottom2C0 C0B0 B0A0 A0left0"/>
    </vehicle>
    <vehicle id="16" depart="76.00">
        <route edges="bottom3D0 D0D1 D1D2 D2C2 C2B2 B2A2 A2left2"/>
    </vehicle>
    <vehicle id="17" depart="78.00">
        <route edges="top3D3 D3D2 D2D1 D1D0 D0C0 C0B0 B0A0 A0left0"/>
    </vehicle>
    <vehicle id="18" depart="81.00">
        <route edges="top1B3 B3B2 B2B1 B1B0 B0bottom1"/>
    </vehicle>
    <vehicle id="19" depart="84.00">
        <route edges="bottom1B0 B0B1 B1A1 A1A2 A2A3 A3top0"/>
    </vehicle>
    <vehicle id="20" depart="93.00">
        <route edges="top2C3 C3C2 C2C1 C1B1 B1A1 A1left1"/>
    </vehicle>
    <vehicle id="21" depart="96.00">
        <route edges="right3D3 D3D2 D2C2 C2C3 C3D3 D3right3"/>
    </vehicle>
    <vehicle id="22" depart="97.00">
        <route edges="top3D3 D3C3 C3C2 C2C1 C1C0 C0bottom2"/>
    </vehicle>
    <vehicle id="23" depart="102.00">
        <route edges="bottom1B0 B0B1 B1A1 A1A2 A2A3 A3top0"/>
    </vehicle>
    <vehicle id="24" depart="108.00">
        <route edges="top3D3 D3D2 D2D1 D1D0 D0C0 C0B0 B0A0 A0left0"/>
    </vehicle>
    <vehicle id="25" depart="114.00">
        <route edges="right3D3 D3C3 C3B3 B3top1"/>
    </vehicle>
    <vehicle id="26" depart="116.00">
        <route edges="right2D2 D2C2 C2C1 C1C0 C0bottom2"/>
    </vehicle>
    <vehicle id="27" depart="119.00">
        <route edges="right1D1 D1C1 C1B1 B1B0 B0bottom1"/>
    </vehicle>
    <vehicle id="28" depart="131.00">
        <route edges="bottom1B0 B0B1 B1B2 B2B3 B3top1"/>
    </vehicle>
    <vehicle id="29" depart="132.00">
        <route edges="left0A0 A0B0 B0C0 C0C1 C1C2 C2C3 C3top2"/>
    </vehicle>
    <vehicle id="30" depart="133.00">
        <route edges="top1B3 B3B2 B2B1 B1A1 A1left1"/>
    </vehicle>
    <vehicle id="31" depart="142.00">
        <route edges="bottom1B0 B0C0 C0bottom2"/>
    </vehicle>
    <vehicle id="32" depart="145.00">
        <route edges="top0A3 A3A2 A2B2 B2B1 B1B0 B0bottom1"/>
    </vehicle>
    <vehicle id="33" depart="149.00">
        <route edges="bottom1B0 B0C0 C0D0 D0right0"/>
    </vehicle>
    <vehicle id="34" depart="154.00">
        <route edges="right1D1 D1D0 D0right0"/>
    </vehicle>
    <vehicle id="35" depart="156.00">
        <route edges="left2A2 A2A1 A1A0 A0left0"/>
    </vehicle>
    <vehicle id="36" depart="159.00">
        <route edges="bottom0A0 A0B0 B0C0 C0D0 D0bottom3"/>
    </vehicle>
    <vehicle id="37" depart="165.00">
        <route edges="bottom0A0 A0A1 A1A2 A2A3 A3B3 B3C3 C3D3 D3right3"/>
    </vehicle>
    <vehicle id="38" depart="167.00">
        <route edges="right2D2 D2C2 C2B2 B2B3 B3top1"/>
    </vehicle>
    <vehicle id="39" depart="184.00">
        <route edges="right0D0 D0C0 C0B0 B0A0 A0A1 A1A2 A2A3 A3top0"/>
    </vehicle>
    <vehicle id="40" depart="188.00">
        <route edges="right2D2 D2C2 C2B2 B2A2 A2left2"/>
    </vehicle>
    <vehicle id="41" depart="191.00">
        <route edges="right2D2 D2D1 D1D0 D0bottom3"/>
    </vehicle>
    <vehicle id="42" depart="197.00">
        <route edges="left0A0 A0B0 B0bottom1"/>
    </vehicle>
    <vehicle id="43" depart="198.00">
        <route edges="bottom0A0 A0A1 A1B1 B1C1 C1D1 D1right1"/>
    </vehicle>
    <vehicle id="44" depart="202.00">
        <route edges="bottom3D0 D0D1 D1D2 D2right2"/>
    </vehicle>
    <vehicle id="45" depart="206.00">
        <route edges="top1B3 B3C3 C3D3 D3right3"/>
    </vehicle>
    <vehicle id="46" depart="209.00">
        <route edges="left0A0 A0B0 B0B1 B1B2 B2B3 B3top1"/>
    </vehicle>
    <vehicle id="47" depart="210.00">
        <route edges="bottom3D0 D0C0 C0bottom2"/>
    </vehicle>
    <vehicle id="48" depart="219.00">
        <route edges="left2A2 A2B2 B2C2 C2C3 C3top2"/>
    </vehicle>
    <vehicle id="49" depart="219.00">
        <route edges="bottom0A0 A0A1 A1B1 B1B0 B0A0 A0bottom0"/>
    </vehicle>
    <vehicle id="50" depart="222.00">
        <route edges="right1D1 D1D2 D2C2 C2B2 B2A2 A2left2"/>
    </vehicle>
    <vehicle id="51" depart="227.00">
        <route edges="right1D1 D1D0 D0bottom3"/>
    </vehicle>
    <vehicle id="52" depart="234.00">
        <route edges="bottom1B0 B0B1 B1B2 B2B3 B3C3 C3D3 D3right3"/>
    </vehicle>
    <vehicle id="53" depart="239.00">
        <route edges="left2A2 A2B2 B2C2 C2C3 C3top2"/>
    </vehicle>
    <vehicle id="54" depart="243.00">
        <route edges="top3D3 D3D2 D2C2 C2B2 B2A2 A2left2"/>
    </vehicle>
    <vehicle id="55" depart="249.00">
        <route edges="bottom1B0 B0A0 A0bottom0"/>
    </vehicle>
    <vehicle id="56" depart="250.00">
        <route edges="left3A3 A3B3 B3C3 C3D3 D3top3"/>
    </vehicle>
    <vehicle id="57" depart="251.00">
        <route edges="right0D0 D0C0 C0B0 B0A0 A0A1 A1A2 A2A3 A3top0"/>
    </vehicle>
    <vehicle id="58" depart="253.00">
        <route edges="top0A3 A3B3 B3B2 B2A2 A2A3 A3top0"/>
    </vehicle>
    <vehicle id="59" depart="255.00">
        <route edges="left2A2 A2A1 A1A0 A0bottom0"/>
    </vehicle>
    <vehicle id="60" depart="261.00">
        <route edges="bottom1B0 B0B1 B1B2 B2A2 A2left2"/>
    </vehicle>
    <vehicle id="61" depart="274.00">
        <route edges="right3D3 D3D2 D2D1 D1right1"/>
    </vehicle>
    <vehicle id="62" depart="290.00">
        <route edges="right3D3 D3D2 D2C2 C2C3 C3D3 D3right3"/>
    </vehicle>
    <vehicle id="63" depart="292.00">
        <route edges="top0A3 A3left3"/>
    </vehicle>
    <vehicle id="64" depart="294.00">
        <route edges="right2D2 D2C2 C2C3 C3top2"/>
    </vehicle>
    <vehicle id="65" depart="295.00">
        <route edges="right0D0 D0bottom3"/>
    </vehicle>
    <vehicle id="66" depart="296.00">
        <route edges="bottom2C0 C0C1 C1D1 D1right1"/>
    </vehicle>
    <vehicle id="67" depart="305.00">
        <route edges="top2C3 C3C2 C2C1 C1C0 C0B0 B0A0 A0left0"/>
    </vehicle>
    <vehicle id="68" depart="306.00">
        <route edges="top3D3 D3D2 D2C2 C2B2 B2A2 A2left2"/>
    </vehicle>
    <vehicle id="69" depart="310.00">
        <route edges="top2C3 C3B3 B3top1"/>
    </vehicle>
    <vehicle id="70" depart="311.00">
        <route edges="left2A2 A2A1 A1B1 B1C1 C1D1 D1right1"/>
    </vehicle>
    <vehicle id="71" depart="311.00">
        <route edges="left1A1 A1B1 B1B0 B0A0 A0A1 A1left1"/>
    </vehicle>
    <vehicle id="72" depart="312.00">
        <route edges="left2A2 A2A1 A1left1"/>
    </vehicle>
    <vehicle id="73" depart="312.00">
        <route edges="right3D3 D3C3 C3B3 B3A3 A3left3"/>
    </vehicle>
    <vehicle id="74" depart="313.00">
        <route edges="top1B3 B3A3 A3top0"/>
    </vehicle>
    <vehicle id="75" depart="316.00">
        <route edges="left0A0 A0B0 B0C0 C0C1 C1C2 C2C3 C3top2"/>
    </vehicle>
    <vehicle id="76" depart="316.00">
        <route edges="right1D1 D1D0 D0right0"/>
    </vehicle>
    <vehicle id="77" depart="318.00">
        <route edges="bottom3D0 D0D1 D1C1 C1C2 C2C3 C3top2"/>
    </vehicle>
    <vehicle id="78" depart="319.00">
        <route edges="bottom3D0 D0D1 D1C1 C1B1 B1B2 B2B3 B3top1"/>
    </vehicle>
    <vehicle id="79" depart="322.00">
        <route edges="right1D1 D1D2 D2D3 D3top3"/>
    </vehicle>
    <vehicle id="80" depart="323.00">
        <route edges="right0D0 D0C0 C0B0 B0A0 A0A1 A1A2 A2A3 A3top0"/>
    </vehicle>
    <vehicle id="81" depart="324.00">
        <route edges="right3D3 D3C3 C3B3 B3B2 B2B1 B1B0 B0bottom1"/>
    </vehicle>
    <vehicle id="82" depart="326.00">
        <route edges="top3D3 D3D2 D2D1 D1right1"/>
    </vehicle>
    <vehicle id="83" depart="328.00">
        <route edges="top2C3 C3C2 C2C1 C1C0 C0B0 B0A0 A0bottom0"/>
    </vehicle>
    <vehicle id="84" depart="337.00">
        <route edges="bottom3D0 D0C0 C0B0 B0A0 A0bottom0"/>
    </vehicle>
    <vehicle id="85" depart="347.00">
        <route edges="top1B3 B3A3 A3A2 A2A1 A1A0 A0bottom0"/>
    </vehicle>
    <vehicle id="86" depart="350.00">
        <route edges="top0A3 A3A2 A2B2 B2C2 C2D2 D2right2"/>
    </vehicle>
    <vehicle id="87" depart="350.00">
        <route edges="bottom1B0 B0C0 C0D0 D0bottom3"/>
    </vehicle>
    <vehicle id="88" depart="351.00">
        <route edges="left2A2 A2B2 B2C2 C2C1 C1C0 C0bottom2"/>
    </vehicle>
    <vehicle id="89" depart="354.00">
        <route edges="right3D3 D3C3 C3C2 C2C1 C1B1 B1A1 A1left1"/>
    </vehicle>
    <vehicle id="90" depart="369.00">
        <route edges="right1D1 D1D2 D2right2"/>
    </vehicle>
    <vehicle id="91" depart="371.00">
        <route edges="bottom3D0 D0D1 D1D2 D2D3 D3top3"/>
    </vehicle>
    <vehicle id="92" depart="372.00">
        <route edges="left0A0 A0B0 B0B1 B1B2 B2B3 B3top1"/>
    </vehicle>
    <vehicle id="93" depart="377.00">
        <route edges="bottom0A0 A0B0 B0C0 C0bottom2"/>
    </vehicle>
    <vehicle id="94" depart="378.00">
        <route edges="bottom3D0 D0D1 D1D2 D2right2"/>
    </vehicle>
    <vehicle id="95" depart="379.00">
        <route edges="top3D3 D3D2 D2right2"/>
    </vehicle>
    <vehicle id="96" depart="393.00">
        <route edges="top0A3 A3A2 A2A1 A1left1"/>
    </vehicle>
    <vehicle id="97" depart="395.00">
        <route edges="top3D3 D3D2 D2D1 D1right1"/>
    </vehicle>
    <vehicle id="98" depart="397.00">
        <route edges="top2C3 C3D3 D3right3"/>
    </vehicle>
    <vehicle id="99" depart="398.00">
        <route edges="right2D2 D2C2 C2C1 C1C0 C0B0 B0A0 A0left0"/>
    </vehicle>
    <vehicle id="100" depart="399.00">
        <route edges="bottom2C0 C0C1 C1B1 B1A1 A1left1"/>
    </vehicle>
    <vehicle id="101" depart="400.00">
        <route edges="bottom0A0 A0A1 A1A2 A2A3 A3B3 B3C3 C3top2"/>
    </vehicle>
    <vehicle id="102" depart="400.00">
        <route edges="top2C3 C3C2 C2B2 B2A2 A2left2"/>
    </vehicle>
    <vehicle id="103" depart="405.00">
        <route edges="left3A3 A3B3 B3C3 C3top2"/>
    </vehicle>
    <vehicle id="104" depart="410.00">
        <route edges="right0D0 D0D1 D1D2 D2right2"/>
    </vehicle>
    <vehicle id="105" depart="414.00">
        <route edges="right2D2 D2D3 D3top3"/>
    </vehicle>
    <vehicle id="106" depart="415.00">
        <route edges="right0D0 D0D1 D1D2 D2D3 D3right3"/>
    </vehicle>
    <vehicle id="107" depart="425.00">
        <route edges="left1A1 A1B1 B1C1 C1D1 D1right1"/>
    </vehicle>
    <vehicle id="108" depart="430.00">
        <route edges="bottom0A0 A0left0"/>
    </vehicle>
    <vehicle id="109" depart="439.00">
        <route edges="left0A0 A0B0 B0C0 C0D0 D0right0"/>
    </vehicle>
    <vehicle id="110" depart="441.00">
        <route edges="bottom1B0 B0C0 C0D0 D0right0"/>
    </vehicle>
    <vehicle id="111" depart="445.00">
        <route edges="left0A0 A0B0 B0C0 C0bottom2"/>
    </vehicle>
    <vehicle id="112" depart="462.00">
        <route edges="top3D3 D3C3 C3B3 B3A3 A3left3"/>
    </vehicle>
    <vehicle id="113" depart="462.00">
        <route edges="top3D3 D3D2 D2C2 C2B2 B2A2 A2left2"/>
    </vehicle>
    <vehicle id="114" depart="463.00">
        <route edges="bottom0A0 A0B0 B0B1 B1B2 B2B3 B3top1"/>
    </vehicle>
    <vehicle id="115" depart="472.00">
        <route edges="right3D3 D3C3 C3B3 B3B2 B2B1 B1B0 B0bottom1"/>
    </vehicle>
    <vehicle id="116" depart="473.00">
        <route edges="bottom2C0 C0C1 C1C2 C2C3 C3B3 B3A3 A3left3"/>
    </vehicle>
    <vehicle id="117" depart="475.00">
        <route edges="left3A3 A3B3 B3C3 C3D3 D3D2 D2D1 D1right1"/>
    </vehicle>
    <vehicle id="118" depart="480.00">
        <route edges="right2D2 D2C2 C2B2 B2A2 A2left2"/>
    </vehicle>
    <vehicle id="119" depart="481.00">
        <route edges="bottom1B0 B0B1 B1A1 A1A2 A2A3 A3top0"/>
    </vehicle>
    <vehicle id="120" depart="489.00">
        <route edges="left0A0 A0A1 A1A2 A2A3 A3left3"/>
    </vehicle>
    <vehicle id="121" depart="499.00">
        <route edges="bottom3D0 D0C0 C0bottom2"/>
    </vehicle>
    <vehicle id="122" depart="507.00">
        <route edges="left3A3 A3B3 B3C3 C3top2"/>
    </vehicle>
    <vehicle id="123" depart="509.00">
        <route edges="bottom3D0 D0C0 C0C1 C1D1 D1D0 D0bottom3"/>
    </vehicle>
    <vehicle id="124" depart="517.00">
        <route edges="bottom3D0 D0C0 C0C1 C1D1 D1D0 D0bottom3"/>
    </vehicle>
    <vehicle id="125" depart="522.00">
        <route edges="top2C3 C3C2 C2C1 C1B1 B1A1 A1left1"/>
    </vehicle>
    <vehicle id="126" depart="524.00">
        <route edges="top0A3 A3A2 A2A1 A1A0 A0left0"/>
    </vehicle>
    <vehicle id="127" depart="527.00">
        <route edges="left0A0 A0B0 B0bottom1"/>
    </vehicle>
    <vehicle id="128" depart="532.00">
        <route edges="right2D2 D2C2 C2C3 C3top2"/>
    </vehicle>
    <vehicle id="129" depart="535.00">
        <route edges="bottom1B0 B0B1 B1A1 A1A2 A2A3 A3top0"/>
    </vehicle>
    <vehicle id="130" depart="540.00">
        <route edges="left2A2 A2A3 A3left3"/>
    </vehicle>
    <vehicle id="131" depart="543.00">
        <route edges="bottom2C0 C0C1 C1B1 B1A1 A1A2 A2A3 A3top0"/>
    </vehicle>
    <vehicle id="132" depart="570.00">
        <route edges="left2A2 A2B2 B2C2 C2C1 C1C0 C0bottom2"/>
    </vehicle>
    <vehicle id="133" depart="571.00">
        <route edges="top0A3 A3B3 B3C3 C3top2"/>
    </vehicle>
    <vehicle id="134" depart="586.00">
        <route edges="left3A3 A3A2 A2B2 B2C2 C2D2 D2right2"/>
    </vehicle>
    <vehicle id="135" depart="589.00">
        <route edges="top0A3 A3A2 A2left2"/>
    </vehicle>
    <vehicle id="136" depart="590.00">
        <route edges="bottom3D0 D0D1 D1C1 C1B1 B1B2 B2B3 B3top1"/>
    </vehicle>
    <vehicle id="137" depart="594.00">
        <route edges="bottom2C0 C0B0 B0bottom1"/>
    </vehicle>
    <vehicle id="138" depart="603.00">
        <route edges="right0D0 D0C0 C0B0 B0A0 A0A1 A1A2 A2left2"/>
    </vehicle>
    <vehicle id="139" depart="612.00">
        <route edges="top0A3 A3B3 B3C3 C3D3 D3right3"/>
    </vehicle>
    <vehicle id="140" depart="615.00">
        <route edges="top3D3 D3D2 D2D1 D1D0 D0C0 C0B0 B0A0 A0left0"/>
    </vehicle>
    <vehicle id="141" depart="617.00">
        <route edges="bottom3D0 D0D1 D1D2 D2D3 D3right3"/>
    </vehicle>
    <vehicle id="142" depart="622.00">
        <route edges="bottom0A0 A0B0 B0C0 C0bottom2"/>
    </vehicle>
    <vehicle id="143" depart="637.00">
        <route edges="right3D3 D3C3 C3C2 C2B2 B2A2 A2left2"/>
    </vehicle>
    <vehicle id="144" depart="642.00">
        <route edges="left2A2 A2B2 B2C2 C2D2 D2D1 D1D0 D0bottom3"/>
    </vehicle>
    <vehicle id="145" depart="645.00">
        <route edges="right1D1 D1D2 D2D3 D3top3"/>
    </vehicle>
    <vehicle id="146" depart="647.00">
        <route edges="bottom1B0 B0C0 C0D0 D0bottom3"/>
    </vehicle>
    <vehicle id="147" depart="652.00">
        <route edges="bottom1B0 B0B1 B1B2 B2C2 C2D2 D2right2"/>
    </vehicle>
    <vehicle id="148" depart="654.00">
        <route edges="top3D3 D3D2 D2D1 D1D0 D0right0"/>
    </vehicle>
    <vehicle id="149" depart="657.00">
        <route edges="bottom0A0 A0A1 A1A2 A2A3 A3top0"/>
    </vehicle>
    <vehicle id="150" depart="657.00">
        <route edges="bottom0A0 A0B0 B0bottom1"/>
    </vehicle>
    <vehicle id="151" depart="657.00">
        <route edges="right2D2 D2C2 C2B2 B2B3 B3top1"/>
    </vehicle>
    <vehicle id="152" depart="666.00">
        <route edges="left2A2 A2B2 B2C2 C2C3 C3top2"/>
    </vehicle>
    <vehicle id="153" depart="666.00">
        <route edges="top0A3 A3B3 B3C3 C3D3 D3right3"/>
    </vehicle>
    <vehicle id="154" depart="673.00">
        <route edges="right2D2 D2C2 C2B2 B2A2 A2A1 A1A0 A0bottom0"/>
    </vehicle>
    <vehicle id="155" depart="674.00">
        <route edges="bottom0A0 A0A1 A1A2 A2A3 A3left3"/>
    </vehicle>
    <vehicle id="156" depart="675.00">
        <route edges="bottom2C0 C0C1 C1B1 B1A1 A1A2 A2A3 A3top0"/>
    </vehicle>
    <vehicle id="157" depart="679.00">
        <route edges="bottom0A0 A0B0 B0C0 C0bottom2"/>
    </vehicle>
    <vehicle id="158" depart="679.00">
        <route edges="right3D3 D3C3 C3C2 C2C1 C1B1 B1A1 A1left1"/>
    </vehicle>
    <vehicle id="159" depart="681.00">
        <route edges="left3A3 A3B3 B3C3 C3D3 D3right3"/>
    </vehicle>
    <vehicle id="160" depart="683.00">
        <route edges="top0A3 A3B3 B3C3 C3D3 D3right3"/>
    </vehicle>
    <vehicle id="161" depart="685.00">
        <route edges="right2D2 D2C2 C2B2 B2A2 A2A1 A1A0 A0bottom0"/>
    </vehicle>
    <vehicle id="162" depart="691.00">
        <route edges="bottom1B0 B0C0 C0bottom2"/>
    </vehicle>
    <vehicle id="163" depart="691.00">
        <route edges="right3D3 D3C3 C3B3 B3A3 A3A2 A2A1 A1A0 A0bottom0"/>
    </vehicle>
    <vehicle id="164" depart="697.00">
        <route edges="top2C3 C3D3 D3top3"/>
    </vehicle>
    <vehicle id="165" depart="698.00">
        <route edges="right1D1 D1C1 C1B1 B1A1 A1left1"/>
    </vehicle>
    <vehicle id="166" depart="701.00">
        <route edges="right2D2 D2D3 D3top3"/>
    </vehicle>
    <vehicle id="167" depart="707.00">
        <route edges="right2D2 D2C2 C2B2 B2B1 B1B0 B0bottom1"/>
    </vehicle>
    <vehicle id="168" depart="711.00">
        <route edges="right1D1 D1C1 C1B1 B1B0 B0bottom1"/>
    </vehicle>
    <vehicle id="169" depart="720.00">
        <route edges="bottom1B0 B0B1 B1B2 B2B3 B3C3 C3D3 D3right3"/>
    </vehicle>
    <vehicle id="170" depart="721.00">
        <route edges="right3D3 D3C3 C3B3 B3top1"/>
    </vehicle>
    <vehicle id="171" depart="724.00">
        <route edges="top2C3 C3D3 D3right3"/>
    </vehicle>
    <vehicle id="172" depart="724.00">
        <route edges="bottom0A0 A0A1 A1A2 A2A3 A3B3 B3C3 C3top2"/>
    </vehicle>
    <vehicle id="173" depart="730.00">
        <route edges="left2A2 A2B2 B2C2 C2D2 D2D3 D3top3"/>
    </vehicle>
    <vehicle id="174" depart="732.00">
        <route edges="bottom2C0 C0C1 C1B1 B1B2 B2B3 B3top1"/>
    </vehicle>
    <vehicle id="175" depart="736.00">
        <route edges="right2D2 D2D3 D3top3"/>
    </vehicle>
    <vehicle id="176" depart="742.00">
        <route edges="top2C3 C3C2 C2C1 C1B1 B1A1 A1left1"/>
    </vehicle>
    <vehicle id="177" depart="743.00">
        <route edges="top2C3 C3B3 B3B2 B2B1 B1B0 B0bottom1"/>
    </vehicle>
    <vehicle id="178" depart="747.00">
        <route edges="top0A3 A3B3 B3B2 B2A2 A2A3 A3top0"/>
    </vehicle>
    <vehicle id="179" depart="749.00">
        <route edges="top3D3 D3C3 C3top2"/>
    </vehicle>
    <vehicle id="180" depart="751.00">
        <route edges="top1B3 B3A3 A3A2 A2A1 A1A0 A0bottom0"/>
    </vehicle>
    <vehicle id="181" depart="753.00">
        <route edges="top0A3 A3A2 A2B2 B2C2 C2D2 D2right2"/>
    </vehicle>
    <vehicle id="182" depart="753.00">
        <route edges="top0A3 A3A2 A2A1 A1A0 A0left0"/>
    </vehicle>
    <vehicle id="183" depart="755.00">
        <route edges="top0A3 A3A2 A2A1 A1A0 A0bottom0"/>
    </vehicle>
    <vehicle id="184" depart="758.00">
        <route edges="bottom0A0 A0B0 B0C0 C0bottom2"/>
    </vehicle>
    <vehicle id="185" depart="760.00">
        <route edges="left0A0 A0A1 A1B1 B1B0 B0A0 A0left0"/>
    </vehicle>
    <vehicle id="186" depart="760.00">
        <route edges="left1A1 A1B1 B1B0 B0bottom1"/>
    </vehicle>
    <vehicle id="187" depart="761.00">
        <route edges="right3D3 D3C3 C3B3 B3A3 A3top0"/>
    </vehicle>
    <vehicle id="188" depart="764.00">
        <route edges="right2D2 D2C2 C2B2 B2A2 A2A3 A3top0"/>
    </vehicle>
    <vehicle id="189" depart="765.00">
        <route edges="top3D3 D3D2 D2D1 D1C1 C1B1 B1A1 A1left1"/>
    </vehicle>
    <vehicle id="190" depart="766.00">
        <route edges="top1B3 B3C3 C3top2"/>
    </vehicle>
    <vehicle id="191" depart="769.00">
        <route edges="right0D0 D0C0 C0B0 B0A0 A0A1 A1A2 A2A3 A3left3"/>
    </vehicle>
    <vehicle id="192" depart="778.00">
        <route edges="top0A3 A3B3 B3C3 C3D3 D3top3"/>
    </vehicle>
    <vehicle id="193" depart="785.00">
        <route edges="left1A1 A1A0 A0B0 B0C0 C0D0 D0right0"/>
    </vehicle>
    <vehicle id="194" depart="786.00">
        <route edges="right1D1 D1C1 C1B1 B1A1 A1left1"/>
    </vehicle>
    <vehicle id="195" depart="792.00">
        <route edges="left3A3 A3A2 A2left2"/>
    </vehicle>
    <vehicle id="196" depart="794.00">
        <route edges="left3A3 A3A2 A2B2 B2C2 C2D2 D2right2"/>
    </vehicle>
    <vehicle id="197" depart="799.00">
        <route edges="right2D2 D2C2 C2B2 B2B3 B3top1"/>
    </vehicle>
    <vehicle id="198" depart="801.00">
        <route edges="bottom0A0 A0A1 A1left1"/>
    </vehicle>
    <vehicle id="199" depart="803.00">
        <route edges="left1A1 A1B1 B1C1 C1C2 C2C3 C3top2"/>
    </vehicle>
    <vehicle id="200" depart="805.00">
        <route edges="right3D3 D3C3 C3B3 B3A3 A3A2 A2A1 A1A0 A0bottom0"/>
    </vehicle>
    <vehicle id="201" depart="806.00">
        <route edges="left3A3 A3A2 A2left2"/>
    </vehicle>
    <vehicle id="202" depart="807.00">
        <route edges="left3A3 A3B3 B3C3 C3top2"/>
    </vehicle>
    <vehicle id="203" depart="811.00">
        <route edges="bottom2C0 C0D0 D0right0"/>
    </vehicle>
    <vehicle id="204" depart="815.00">
        <route edges="left1A1 A1B1 B1B2 B2C2 C2D2 D2right2"/>
    </vehicle>
    <vehicle id="205" depart="815.00">
        <route edges="left0A0 A0A1 A1A2 A2left2"/>
    </vehicle>
    <vehicle id="206" depart="816.00">
        <route edges="left2A2 A2B2 B2C2 C2C1 C1C0 C0bottom2"/>
    </vehicle>
    <vehicle id="207" depart="819.00">
        <route edges="top0A3 A3A2 A2B2 B2C2 C2C1 C1C0 C0bottom2"/>
    </vehicle>
    <vehicle id="208" depart="822.00">
        <route edges="top0A3 A3B3 B3C3 C3D3 D3right3"/>
    </vehicle>
    <vehicle id="209" depart="823.00">
        <route edges="top0A3 A3A2 A2A1 A1A0 A0bottom0"/>
    </vehicle>
    <vehicle id="210" depart="825.00">
        <route edges="right1D1 D1C1 C1B1 B1A1 A1left1"/>
    </vehicle>
    <vehicle id="211" depart="828.00">
        <route edges="right3D3 D3D2 D2D1 D1D0 D0right0"/>
    </vehicle>
    <vehicle id="212" depart="829.00">
        <route edges="bottom2C0 C0C1 C1C2 C2D2 D2right2"/>
    </vehicle>
    <vehicle id="213" depart="839.00">
        <route edges="bottom0A0 A0A1 A1A2 A2A3 A3B3 B3C3 C3top2"/>
    </vehicle>
    <vehicle id="214" depart="839.00">
        <route edges="top2C3 C3C2 C2C1 C1D1 D1right1"/>
    </vehicle>
    <vehicle id="215" depart="842.00">
        <route edges="bottom1B0 B0C0 C0bottom2"/>
    </vehicle>
    <vehicle id="216" depart="848.00">
        <route edges="top2C3 C3B3 B3A3 A3left3"/>
    </vehicle>
    <vehicle id="217" depart="855.00">
        <route edges="left1A1 A1A0 A0bottom0"/>
    </vehicle>
    <vehicle id="218" depart="856.00">
        <route edges="right1D1 D1C1 C1B1 B1B0 B0bottom1"/>
    </vehicle>
    <vehicle id="219" depart="857.00">
        <route edges="bottom3D0 D0D1 D1C1 C1C2 C2C3 C3top2"/>
    </vehicle>
    <vehicle id="220" depart="860.00">
        <route edges="left3A3 A3A2 A2A1 A1A0 A0left0"/>
    </vehicle>
    <vehicle id="221" depart="860.00">
        <route edges="right3D3 D3C3 C3B3 B3B2 B2B1 B1B0 B0bottom1"/>
    </vehicle>
    <vehicle id="222" depart="868.00">
        <route edges="left2A2 A2A1 A1A0 A0bottom0"/>
    </vehicle>
    <vehicle id="223" depart="869.00">
        <route edges="top0A3 A3A2 A2A1 A1B1 B1C1 C1D1 D1right1"/>
    </vehicle>
    <vehicle id="224" depart="873.00">
        <route edges="right1D1 D1D2 D2C2 C2B2 B2A2 A2left2"/>
    </vehicle>
    <vehicle id="225" depart="875.00">
        <route edges="right0D0 D0C0 C0bottom2"/>
    </vehicle>
    <vehicle id="226" depart="876.00">
        <route edges="left1A1 A1A2 A2A3 A3left3"/>
    </vehicle>
    <vehicle id="227" depart="878.00">
        <route edges="right2D2 D2C2 C2C1 C1C0 C0B0 B0A0 A0left0"/>
    </vehicle>
    <vehicle id="228" depart="881.00">
        <route edges="bottom2C0 C0B0 B0A0 A0left0"/>
    </vehicle>
    <vehicle id="229" depart="883.00">
        <route edges="top3D3 D3right3"/>
    </vehicle>
    <vehicle id="230" depart="884.00">
        <route edges="top2C3 C3C2 C2B2 B2B3 B3C3 C3top2"/>
    </vehicle>
    <vehicle id="231" depart="886.00">
        <route edges="bottom0A0 A0A1 A1B1 B1B0 B0A0 A0bottom0"/>
    </vehicle>
    <vehicle id="232" depart="889.00">
        <route edges="left1A1 A1B1 B1B2 B2B3 B3C3 C3D3 D3right3"/>
    </vehicle>
    <vehicle id="233" depart="894.00">
        <route edges="right1D1 D1C1 C1C0 C0B0 B0A0 A0left0"/>
    </vehicle>
    <vehicle id="234" depart="895.00">
        <route edges="left3A3 A3A2 A2A1 A1left1"/>
    </vehicle>
    <vehicle id="235" depart="895.00">
        <route edges="right2D2 D2C2 C2C1 C1B1 B1A1 A1left1"/>
    </vehicle>
    <vehicle id="236" depart="896.00">
        <route edges="top1B3 B3B2 B2B1 B1B0 B0C0 C0D0 D0right0"/>
    </vehicle>
    <vehicle id="237" depart="899.00">
        <route edges="right0D0 D0C0 C0B0 B0B1 B1B2 B2B3 B3top1"/>
    </vehicle>
    <vehicle id="238" depart="899.00">
        <route edges="left1A1 A1A2 A2left2"/>
    </vehicle>
    <vehicle id="239" depart="908.00">
        <route edges="top1B3 B3B2 B2B1 B1B0 B0A0 A0left0"/>
    </vehicle>
    <vehicle id="240" depart="912.00">
        <route edges="bottom3D0 D0C0 C0B0 B0A0 A0bottom0"/>
    </vehicle>
    <vehicle id="241" depart="912.00">
        <route edges="right0D0 D0D1 D1C1 C1B1 B1A1 A1left1"/>
    </vehicle>
    <vehicle id="242" depart="914.00">
        <route edges="top1B3 B3C3 C3D3 D3top3"/>
    </vehicle>
    <vehicle id="243" depart="916.00">
        <route edges="bottom2C0 C0C1 C1C2 C2B2 B2A2 A2left2"/>
    </vehicle>
    <vehicle id="244" depart="919.00">
        <route edges="bottom1B0 B0B1 B1B2 B2B3 B3C3 C3D3 D3right3"/>
    </vehicle>
    <vehicle id="245" depart="926.00">
        <route edges="right3D3 D3D2 D2D1 D1D0 D0bottom3"/>
    </vehicle>
    <vehicle id="246" depart="927.00">
        <route edges="top0A3 A3A2 A2A1 A1A0 A0left0"/>
    </vehicle>
    <vehicle id="247" depart="930.00">
        <route edges="top3D3 D3C3 C3B3 B3top1"/>
    </vehicle>
    <vehicle id="248" depart="937.00">
        <route edges="left2A2 A2A3 A3left3"/>
    </vehicle>
    <vehicle id="249" depart="938.00">
        <route edges="top2C3 C3C2 C2C1 C1C0 C0B0 B0A0 A0left0"/>
    </vehicle>
    <vehicle id="250" depart="939.00">
        <route edges="right0D0 D0D1 D1D2 D2D3 D3right3"/>
    </vehicle>
    <vehicle id="251" depart="942.00">
        <route edges="bottom3D0 D0C0 C0C1 C1D1 D1D0 D0bottom3"/>
    </vehicle>
    <vehicle id="252" depart="943.00">
        <route edges="bottom3D0 D0D1 D1C1 C1B1 B1A1 A1A2 A2A3 A3top0"/>
    </vehicle>
    <vehicle id="253" depart="943.00">
        <route edges="right3D3 D3D2 D2right2"/>
    </vehicle>
    <vehicle id="254" depart="945.00">
        <route edges="bottom2C0 C0C1 C1C2 C2C3 C3B3 B3A3 A3left3"/>
    </vehicle>
    <vehicle id="255" depart="945.00">
        <route edges="right2D2 D2D3 D3C3 C3B3 B3A3 A3left3"/>
    </vehicle>
    <vehicle id="256" depart="948.00">
        <route edges="bottom2C0 C0B0 B0A0 A0left0"/>
    </vehicle>
    <vehicle id="257" depart="949.00">
        <route edges="bottom3D0 D0C0 C0B0 B0A0 A0left0"/>
    </vehicle>
    <vehicle id="258" depart="954.00">
        <route edges="bottom2C0 C0C1 C1C2 C2B2 B2A2 A2left2"/>
    </vehicle>
    <vehicle id="259" depart="954.00">
        <route edges="top2C3 C3D3 D3right3"/>
    </vehicle>
    <vehicle id="260" depart="954.00">
        <route edges="top2C3 C3C2 C2C1 C1C0 C0B0 B0A0 A0left0"/>
    </vehicle>
    <vehicle id="261" depart="955.00">
        <route edges="top3D3 D3C3 C3B3 B3top1"/>
    </vehicle>
    <vehicle id="262" depart="957.00">
        <route edges="right0D0 D0C0 C0B0 B0B1 B1B2 B2B3 B3top1"/>
    </vehicle>