<?xml version="1.0" encoding="UTF-8"?>

<!-- generated on Sun May 23 17:10:18 2021 by Eclipse SUMO duarouter Version 1.9.0
<configuration xmlns:xsi="http://www.w3.org/2001/XMLSchema-instance" xsi:noNamespaceSchemaLocation="http://sumo.dlr.de/xsd/duarouterConfiguration.xsd">

    <input>
        <net-file value="grid4x4.net.xml"/>
        <route-files value="./trips/grid4x4_896.trips.xml"/>
    </input>

    <output>
        <output-file value="./routes/grid4x4_896.rou.xml"/>
        <alternatives-output value="./routes/grid4x4_896.rou.alt.xml"/>
    </output>

</configuration>
-->

<routes xmlns:xsi="http://www.w3.org/2001/XMLSchema-instance" xsi:noNamespaceSchemaLocation="http://sumo.dlr.de/xsd/routes_file.xsd">
    <vehicle id="0" depart="3.00">
        <route edges="right3D3 D3C3 C3C2 C2C1 C1B1 B1A1 A1left1"/>
    </vehicle>
    <vehicle id="1" depart="5.00">
        <route edges="left2A2 A2B2 B2C2 C2C1 C1C0 C0bottom2"/>
    </vehicle>
    <vehicle id="2" depart="7.00">
        <route edges="top1B3 B3C3 C3D3 D3top3"/>
    </vehicle>
    <vehicle id="3" depart="12.00">
        <route edges="left0A0 A0A1 A1B1 B1B0 B0A0 A0left0"/>
    </vehicle>
    <vehicle id="4" depart="14.00">
        <route edges="right1D1 D1C1 C1B1 B1B0 B0bottom1"/>
    </vehicle>
    <vehicle id="5" depart="26.00">
        <route edges="bottom0A0 A0A1 A1left1"/>
    </vehicle>
    <vehicle id="6" depart="40.00">
        <route edges="bottom0A0 A0A1 A1A2 A2A3 A3left3"/>
    </vehicle>
    <vehicle id="7" depart="43.00">
        <route edges="right1D1 D1C1 C1B1 B1A1 A1A2 A2A3 A3left3"/>
    </vehicle>
    <vehicle id="8" depart="47.00">
        <route edges="bottom1B0 B0C0 C0D0 D0right0"/>
    </vehicle>
    <vehicle id="9" depart="48.00">
        <route edges="left1A1 A1B1 B1C1 C1C0 C0bottom2"/>
    </vehicle>
    <vehicle id="10" depart="52.00">
        <route edges="right1D1 D1D0 D0bottom3"/>
    </vehicle>
    <vehicle id="11" depart="55.00">
        <route edges="right0D0 D0C0 C0B0 B0A0 A0bottom0"/>
    </vehicle>
    <vehicle id="12" depart="63.00">
        <route edges="right3D3 D3C3 C3C2 C2C1 C1C0 C0B0 B0A0 A0left0"/>
    </vehicle>
    <vehicle id="13" depart="84.00">
        <route edges="bottom1B0 B0C0 C0C1 C1C2 C2C3 C3top2"/>
    </vehicle>
    <vehicle id="14" depart="84.00">
        <route edges="left3A3 A3A2 A2A1 A1A0 A0left0"/>
    </vehicle>
    <vehicle id="15" depart="86.00">
        <route edges="top3D3 D3D2 D2D1 D1D0 D0C0 C0B0 B0bottom1"/>
    </vehicle>
    <vehicle id="16" depart="91.00">
        <route edges="bottom1B0 B0B1 B1C1 C1C0 C0B0 B0bottom1"/>
    </vehicle>
    <vehicle id="17" depart="93.00">
        <route edges="bottom0A0 A0A1 A1B1 B1B0 B0A0 A0bottom0"/>
    </vehicle>
    <vehicle id="18" depart="115.00">
        <route edges="right3D3 D3C3 C3C2 C2C1 C1C0 C0B0 B0A0 A0left0"/>
    </vehicle>
    <vehicle id="19" depart="131.00">
        <route edges="right3D3 D3D2 D2C2 C2C3 C3D3 D3right3"/>
    </vehicle>
    <vehicle id="20" depart="134.00">
        <route edges="right3D3 D3C3 C3C2 C2C1 C1C0 C0bottom2"/>
    </vehicle>
    <vehicle id="21" depart="140.00">
        <route edges="left2A2 A2B2 B2C2 C2C3 C3top2"/>
    </vehicle>
    <vehicle id="22" depart="140.00">
        <route edges="left0A0 A0B0 B0bottom1"/>
    </vehicle>
    <vehicle id="23" depart="142.00">
        <route edges="right1D1 D1C1 C1C0 C0bottom2"/>
    </vehicle>
    <vehicle id="24" depart="148.00">
        <route edges="left1A1 A1B1 B1C1 C1C0 C0bottom2"/>
    </vehicle>
    <vehicle id="25" depart="150.00">
        <route edges="right0D0 D0C0 C0C1 C1C2 C2C3 C3top2"/>
    </vehicle>
    <vehicle id="26" depart="151.00">
        <route edges="bottom2C0 C0D0 D0right0"/>
    </vehicle>
    <vehicle id="27" depart="152.00">
        <route edges="right3D3 D3C3 C3B3 B3A3 A3top0"/>
    </vehicle>
    <vehicle id="28" depart="154.00">
        <route edges="left0A0 A0bottom0"/>
    </vehicle>
    <vehicle id="29" depart="162.00">
        <route edges="top1B3 B3C3 C3top2"/>
    </vehicle>
    <vehicle id="30" depart="164.00">
        <route edges="top0A3 A3left3"/>
    </vehicle>
    <vehicle id="31" depart="167.00">
        <route edges="top1B3 B3B2 B2C2 C2D2 D2right2"/>
    </vehicle>
    <vehicle id="32" depart="169.00">
        <route edges="top1B3 B3C3 C3D3 D3right3"/>
    </vehicle>
    <vehicle id="33" depart="172.00">
        <route edges="left1A1 A1A2 A2A3 A3left3"/>
    </vehicle>
    <vehicle id="34" depart="175.00">
        <route edges="left0A0 A0A1 A1A2 A2A3 A3left3"/>
    </vehicle>
    <vehicle id="35" depart="181.00">
        <route edges="top1B3 B3A3 A3top0"/>
    </vehicle>
    <vehicle id="36" depart="192.00">
        <route edges="left3A3 A3B3 B3C3 C3D3 D3right3"/>
    </vehicle>
    <vehicle id="37" depart="197.00">
        <route edges="bottom0A0 A0A1 A1A2 A2A3 A3left3"/>
    </vehicle>
    <vehicle id="38" depart="201.00">
        <route edges="right2D2 D2D1 D1D0 D0bottom3"/>
    </vehicle>
    <vehicle id="39" depart="205.00">
        <route edges="bottom2C0 C0C1 C1C2 C2C3 C3B3 B3A3 A3left3"/>
    </vehicle>
    <vehicle id="40" depart="207.00">
        <route edges="left2A2 A2B2 B2C2 C2D2 D2D1 D1D0 D0bottom3"/>
    </vehicle>
    <vehicle id="41" depart="217.00">
        <route edges="bottom2C0 C0D0 D0right0"/>
    </vehicle>
    <vehicle id="42" depart="221.00">
        <route edges="left2A2 A2B2 B2C2 C2D2 D2D3 D3top3"/>
    </vehicle>
    <vehicle id="43" depart="223.00">
        <route edges="left2A2 A2B2 B2B3 B3top1"/>
    </vehicle>
    <vehicle id="44" depart="224.00">
        <route edges="bottom0A0 A0A1 A1A2 A2B2 B2C2 C2D2 D2right2"/>
    </vehicle>
    <vehicle id="45" depart="229.00">
        <route edges="right2D2 D2C2 C2B2 B2B1 B1B0 B0bottom1"/>
    </vehicle>
    <vehicle id="46" depart="232.00">
        <route edges="top2C3 C3D3 D3right3"/>
    </vehicle>
    <vehicle id="47" depart="238.00">
        <route edges="top2C3 C3C2 C2C1 C1C0 C0B0 B0A0 A0left0"/>
    </vehicle>
    <vehicle id="48" depart="238.00">
        <route edges="right1D1 D1D2 D2right2"/>
    </vehicle>
    <vehicle id="49" depart="239.00">
        <route edges="left0A0 A0B0 B0B1 B1B2 B2B3 B3C3 C3D3 D3right3"/>
    </vehicle>
    <vehicle id="50" depart="242.00">
        <route edges="right0D0 D0C0 C0B0 B0A0 A0A1 A1A2 A2A3 A3left3"/>
    </vehicle>
    <vehicle id="51" depart="243.00">
        <route edges="left2A2 A2B2 B2C2 C2D2 D2D3 D3top3"/>
    </vehicle>
    <vehicle id="52" depart="245.00">
        <route edges="top3D3 D3D2 D2D1 D1D0 D0C0 C0B0 B0bottom1"/>
    </vehicle>
    <vehicle id="53" depart="246.00">
        <route edges="top1B3 B3C3 C3D3 D3right3"/>
    </vehicle>
    <vehicle id="54" depart="250.00">
        <route edges="left3A3 A3B3 B3C3 C3top2"/>
    </vehicle>
    <vehicle id="55" depart="251.00">
        <route edges="top3D3 D3D2 D2D1 D1D0 D0right0"/>
    </vehicle>
    <vehicle id="56" depart="251.00">
        <route edges="bottom3D0 D0C0 C0C1 C1D1 D1D0 D0bottom3"/>
    </vehicle>
    <vehicle id="57" depart="255.00">
        <route edges="left3A3 A3B3 B3C3 C3D3 D3D2 D2D1 D1D0 D0right0"/>
    </vehicle>
    <vehicle id="58" depart="257.00">
        <route edges="left2A2 A2A1 A1left1"/>
    </vehicle>
    <vehicle id="59" depart="263.00">
        <route edges="left3A3 A3B3 B3C3 C3D3 D3D2 D2D1 D1right1"/>
    </vehicle>
    <vehicle id="60" depart="268.00">
        <route edges="bottom3D0 D0C0 C0bottom2"/>
    </vehicle>
    <vehicle id="61" depart="273.00">
        <route edges="left2A2 A2A1 A1A0 A0left0"/>
    </vehicle>
    <vehicle id="62" depart="276.00">
        <route edges="left1A1 A1B1 B1C1 C1D1 D1D0 D0bottom3"/>
    </vehicle>
    <vehicle id="63" depart="278.00">
        <route edges="bottom1B0 B0B1 B1B2 B2B3 B3C3 C3D3 D3top3"/>
    </vehicle>
    <vehicle id="64" depart="291.00">
        <route edges="top3D3 D3C3 C3B3 B3A3 A3left3"/>
    </vehicle>
    <vehicle id="65" depart="294.00">
        <route edges="left2A2 A2B2 B2C2 C2D2 D2right2"/>
    </vehicle>
    <vehicle id="66" depart="295.00">
        <route edges="top1B3 B3A3 A3top0"/>
    </vehicle>
    <vehicle id="67" depart="298.00">
        <route edges="top3D3 D3C3 C3B3 B3A3 A3left3"/>
    </vehicle>
    <vehicle id="68" depart="299.00">
        <route edges="right0D0 D0D1 D1D2 D2right2"/>
    </vehicle>
    <vehicle id="69" depart="304.00">
        <route edges="left0A0 A0B0 B0B1 B1B2 B2B3 B3C3 C3D3 D3right3"/>
    </vehicle>
    <vehicle id="70" depart="306.00">
        <route edges="top2C3 C3B3 B3B2 B2B1 B1B0 B0bottom1"/>
    </vehicle>
    <vehicle id="71" depart="306.00">
        <route edges="left3A3 A3top0"/>
    </vehicle>
    <vehicle id="72" depart="312.00">
        <route edges="bottom2C0 C0B0 B0bottom1"/>
    </vehicle>
    <vehicle id="73" depart="314.00">
        <route edges="right2D2 D2C2 C2C3 C3top2"/>
    </vehicle>
    <vehicle id="74" depart="318.00">
        <route edges="right0D0 D0C0 C0B0 B0A0 A0left0"/>
    </vehicle>
    <vehicle id="75" depart="318.00">
        <route edges="top0A3 A3B3 B3B2 B2A2 A2A3 A3top0"/>
    </vehicle>
    <vehicle id="76" depart="324.00">
        <route edges="bottom2C0 C0C1 C1B1 B1A1 A1A2 A2A3 A3top0"/>
    </vehicle>
    <vehicle id="77" depart="324.00">
        <route edges="left3A3 A3B3 B3C3 C3D3 D3right3"/>
    </vehicle>
    <vehicle id="78" depart="333.00">
        <route edges="left3A3 A3B3 B3C3 C3top2"/>
    </vehicle>
    <vehicle id="79" depart="338.00">
        <route edges="top2C3 C3C2 C2C1 C1C0 C0bottom2"/>
    </vehicle>
    <vehicle id="80" depart="342.00">
        <route edges="left3A3 A3B3 B3C3 C3D3 D3D2 D2D1 D1right1"/>
    </vehicle>
    <vehicle id="81" depart="347.00">
        <route edges="left1A1 A1B1 B1C1 C1D1 D1right1"/>
    </vehicle>
    <vehicle id="82" depart="349.00">
        <route edges="right1D1 D1C1 C1B1 B1B2 B2B3 B3top1"/>
    </vehicle>
    <vehicle id="83" depart="364.00">
        <route edges="top1B3 B3B2 B2C2 C2C1 C1C0 C0bottom2"/>
    </vehicle>
    <vehicle id="84" depart="364.00">
        <route edges="top1B3 B3C3 C3top2"/>
    </vehicle>
    <vehicle id="85" depart="366.00">
        <route edges="top3D3 D3D2 D2D1 D1D0 D0right0"/>
    </vehicle>
    <vehicle id="86" depart="368.00">
        <route edges="top2C3 C3C2 C2C1 C1C0 C0D0 D0right0"/>
    </vehicle>
    <vehicle id="87" depart="369.00">
        <route edges="right0D0 D0bottom3"/>
    </vehicle>
    <vehicle id="88" depart="372.00">
        <route edges="bottom3D0 D0D1 D1D2 D2D3 D3right3"/>
    </vehicle>
    <vehicle id="89" depart="379.00">
        <route edges="bottom2C0 C0B0 B0A0 A0left0"/>
    </vehicle>
    <vehicle id="90" depart="384.00">
        <route edges="top3D3 D3D2 D2C2 C2B2 B2A2 A2left2"/>
    </vehicle>
    <vehicle id="91" depart="384.00">
        <route edges="left0A0 A0B0 B0bottom1"/>
    </vehicle>
    <vehicle id="92" depart="388.00">
        <route edges="bottom2C0 C0D0 D0right0"/>
    </vehicle>
    <vehicle id="93" depart="389.00">
        <route edges="top0A3 A3left3"/>
    </vehicle>
    <vehicle id="94" depart="399.00">
        <route edges="right2D2 D2D3 D3C3 C3B3 B3A3 A3left3"/>
    </vehicle>
    <vehicle id="95" depart="402.00">
        <route edges="left0A0 A0B0 B0C0 C0D0 D0right0"/>
    </vehicle>
    <vehicle id="96" depart="405.00">
        <route edges="left0A0 A0A1 A1A2 A2left2"/>
    </vehicle>
    <vehicle id="97" depart="407.00">
        <route edges="right2D2 D2C2 C2C1 C1B1 B1A1 A1left1"/>
    </vehicle>
    <vehicle id="98" depart="411.00">
        <route edges="bottom0A0 A0B0 B0B1 B1B2 B2B3 B3top1"/>
    </vehicle>
    <vehicle id="99" depart="412.00">
        <route edges="bottom2C0 C0B0 B0A0 A0bottom0"/>
    </vehicle>
    <vehicle id="100" depart="417.00">
        <route edges="bottom2C0 C0B0 B0bottom1"/>
    </vehicle>
    <vehicle id="101" depart="422.00">
        <route edges="right1D1 D1C1 C1C2 C2D2 D2D1 D1right1"/>
    </vehicle>
    <vehicle id="102" depart="423.00">
        <route edges="bottom1B0 B0B1 B1B2 B2A2 A2left2"/>
    </vehicle>
    <vehicle id="103" depart="426.00">
        <route edges="bottom1B0 B0B1 B1B2 B2B3 B3top1"/>
    </vehicle>
    <vehicle id="104" depart="426.00">
        <route edges="left1A1 A1A2 A2A3 A3left3"/>
    </vehicle>
    <vehicle id="105" depart="430.00">
        <route edges="top1B3 B3C3 C3D3 D3right3"/>
    </vehicle>
    <vehicle id="106" depart="432.00">
        <route edges="right1D1 D1D2 D2D3 D3right3"/>
    </vehicle>
    <vehicle id="107" depart="446.00">
        <route edges="top0A3 A3B3 B3C3 C3D3 D3right3"/>
    </vehicle>
    <vehicle id="108" depart="450.00">
        <route edges="bottom1B0 B0A0 A0left0"/>
    </vehicle>
    <vehicle id="109" depart="459.00">
        <route edges="right0D0 D0bottom3"/>
    </vehicle>
    <vehicle id="110" depart="462.00">
        <route edges="bottom0A0 A0B0 B0B1 B1B2 B2B3 B3top1"/>
    </vehicle>
    <vehicle id="111" depart="464.00">
        <route edges="right1D1 D1C1 C1B1 B1A1 A1A2 A2A3 A3left3"/>
    </vehicle>
    <vehicle id="112" depart="477.00">
        <route edges="right1D1 D1D0 D0right0"/>
    </vehicle>
    <vehicle id="113" depart="482.00">
        <route edges="bottom1B0 B0B1 B1A1 A1left1"/>
    </vehicle>
    <vehicle id="114" depart="486.00">
        <route edges="bottom0A0 A0B0 B0C0 C0D0 D0right0"/>
    </vehicle>
    <vehicle id="115" depart="486.00">
        <route edges="left0A0 A0A1 A1A2 A2left2"/>
    </vehicle>
    <vehicle id="116" depart="487.00">
        <route edges="left0A0 A0B0 B0B1 B1C1 C1D1 D1right1"/>
    </vehicle>
    <vehicle id="117" depart="491.00">
        <route edges="top2C3 C3C2 C2C1 C1C0 C0bottom2"/>
    </vehicle>
    <vehicle id="118" depart="500.00">
        <route edges="left2A2 A2A3 A3top0"/>
    </vehicle>
    <vehicle id="119" depart="500.00">
        <route edges="bottom0A0 A0left0"/>
    </vehicle>
    <vehicle id="120" depart="503.00">
        <route edges="left1A1 A1A2 A2A3 A3left3"/>
    </vehicle>
    <vehicle id="121" depart="507.00">
        <route edges="bottom0A0 A0A1 A1B1 B1B0 B0A0 A0bottom0"/>
    </vehicle>
    <vehicle id="122" depart="514.00">
        <route edges="top3D3 D3D2 D2D1 D1D0 D0C0 C0B0 B0A0 A0left0"/>
    </vehicle>
    <vehicle id="123" depart="518.00">
        <route edges="left1A1 A1B1 B1C1 C1D1 D1right1"/>
    </vehicle>
    <vehicle id="124" depart="520.00">
        <route edges="left1A1 A1A2 A2A3 A3top0"/>
    </vehicle>
    <vehicle id="125" depart="521.00">
        <route edges="right3D3 D3D2 D2D1 D1D0 D0right0"/>
    </vehicle>
    <vehicle id="126" depart="534.00">
        <route edges="left2A2 A2B2 B2C2 C2C3 C3top2"/>
    </vehicle>
    <vehicle id="127" depart="537.00">
        <route edges="right3D3 D3D2 D2D1 D1D0 D0right0"/>
    </vehicle>
    <vehicle id="128" depart="537.00">
        <route edges="top1B3 B3B2 B2B1 B1B0 B0A0 A0left0"/>
    </vehicle>
    <vehicle id="129" depart="541.00">
        <route edges="right2D2 D2D1 D1right1"/>
    </vehicle>
    <vehicle id="130" depart="541.00">
        <route edges="bottom2C0 C0C1 C1C2 C2C3 C3top2"/>
    </vehicle>
    <vehicle id="131" depart="543.00">
        <route edges="right3D3 D3C3 C3B3 B3top1"/>
    </vehicle>
    <vehicle id="132" depart="543.00">
        <route edges="bottom1B0 B0B1 B1C1 C1C0 C0B0 B0bottom1"/>
    </vehicle>
    <vehicle id="133" depart="551.00">
        <route edges="top1B3 B3C3 C3D3 D3top3"/>
    </vehicle>
    <vehicle id="134" depart="552.00">
        <route edges="right3D3 D3C3 C3C2 C2C1 C1C0 C0B0 B0A0 A0left0"/>
    </vehicle>
    <vehicle id="135" depart="553.00">
        <route edges="left0A0 A0B0 B0B1 B1B2 B2B3 B3top1"/>
    </vehicle>
    <vehicle id="136" depart="555.00">
        <route edges="left3A3 A3A2 A2A1 A1A0 A0left0"/>
    </vehicle>
    <vehicle id="137" depart="557.00">
        <route edges="bottom0A0 A0A1 A1A2 A2A3 A3B3 B3C3 C3D3 D3right3"/>
    </vehicle>
    <vehicle id="138" depart="558.00">
        <route edges="left1A1 A1B1 B1B0 B0A0 A0A1 A1left1"/>
    </vehicle>
    <vehicle id="139" depart="559.00">
        <route edges="right0D0 D0C0 C0C1 C1D1 D1D0 D0right0"/>
    </vehicle>
    <vehicle id="140" depart="560.00">
        <route edges="bottom3D0 D0D1 D1D2 D2D3 D3top3"/>
    </vehicle>
    <vehicle id="141" depart="563.00">
        <route edges="left2A2 A2B2 B2C2 C2D2 D2D1 D1D0 D0right0"/>
    </vehicle>
    <vehicle id="142" depart="563.00">
        <route edges="bottom1B0 B0C0 C0bottom2"/>
    </vehicle>
    <vehicle id="143" depart="567.00">
        <route edges="top1B3 B3B2 B2B1 B1B0 B0bottom1"/>
    </vehicle>
    <vehicle id="144" depart="582.00">
        <route edges="left1A1 A1B1 B1B0 B0A0 A0A1 A1left1"/>
    </vehicle>
    <vehicle id="145" depart="586.00">
        <route edges="left1A1 A1B1 B1B2 B2B3 B3C3 C3D3 D3right3"/>
    </vehicle>
    <vehicle id="146" depart="589.00">
        <route edges="bottom1B0 B0C0 C0D0 D0right0"/>
    </vehicle>
    <vehicle id="147" depart="591.00">
        <route edges="bottom2C0 C0C1 C1C2 C2D2 D2right2"/>
    </vehicle>
    <vehicle id="148" depart="592.00">
        <route edges="top1B3 B3C3 C3top2"/>
    </vehicle>
    <vehicle id="149" depart="602.00">
        <route edges="right1D1 D1C1 C1B1 B1B2 B2B3 B3top1"/>
    </vehicle>
    <vehicle id="150" depart="603.00">
        <route edges="bottom3D0 D0C0 C0C1 C1D1 D1D0 D0bottom3"/>
    </vehicle>
    <vehicle id="151" depart="605.00">
        <route edges="left0A0 A0B0 B0C0 C0D0 D0D1 D1D2 D2D3 D3top3"/>
    </vehicle>
    <vehicle id="152" depart="609.00">
        <route edges="left0A0 A0B0 B0C0 C0D0 D0right0"/>
    </vehicle>
    <vehicle id="153" depart="619.00">
        <route edges="left2A2 A2A3 A3left3"/>
    </vehicle>
    <vehicle id="154" depart="625.00">
        <route edges="bottom0A0 A0A1 A1B1 B1C1 C1D1 D1right1"/>
    </vehicle>
    <vehicle id="155" depart="631.00">
        <route edges="bottom1B0 B0C0 C0D0 D0right0"/>
    </vehicle>
    <vehicle id="156" depart="635.00">
        <route edges="bottom2C0 C0C1 C1D1 D1right1"/>
    </vehicle>
    <vehicle id="157" depart="636.00">
        <route edges="top2C3 C3C2 C2D2 D2right2"/>
    </vehicle>
    <vehicle id="158" depart="639.00">
        <route edges="left0A0 A0A1 A1A2 A2A3 A3top0"/>
    </vehicle>
    <vehicle id="159" depart="646.00">
        <route edges="top0A3 A3A2 A2B2 B2B1 B1B0 B0bottom1"/>
    </vehicle>
    <vehicle id="160" depart="647.00">
        <route edges="bottom0A0 A0A1 A1A2 A2B2 B2C2 C2D2 D2right2"/>
    </vehicle>
    <vehicle id="161" depart="648.00">
        <route edges="bottom0A0 A0A1 A1A2 A2A3 A3B3 B3C3 C3D3 D3top3"/>
    </vehicle>
    <vehicle id="162" depart="649.00">
        <route edges="top1B3 B3C3 C3D3 D3top3"/>
    </vehicle>
    <vehicle id="163" depart="650.00">
        <route edges="right3D3 D3C3 C3B3 B3B2 B2B1 B1B0 B0bottom1"/>
    </vehicle>
    <vehicle id="164" depart="653.00">
        <route edges="right1D1 D1D0 D0right0"/>
    </vehicle>
    <vehicle id="165" depart="658.00">
        <route edges="top3D3 D3D2 D2C2 C2B2 B2A2 A2left2"/>
    </vehicle>
    <vehicle id="166" depart="658.00">
        <route edges="left0A0 A0B0 B0C0 C0bottom2"/>
    </vehicle>
    <vehicle id="167" depart="658.00">
        <route edges="right0D0 D0D1 D1C1 C1B1 B1A1 A1left1"/>
    </vehicle>
    <vehicle id="168" depart="660.00">
        <route edges="top2C3 C3C2 C2C1 C1C0 C0D0 D0right0"/>
    </vehicle>
    <vehicle id="169" depart="661.00">
        <route edges="bottom1B0 B0B1 B1A1 A1left1"/>
    </vehicle>
    <vehicle id="170" depart="661.00">
        <route edges="bottom1B0 B0B1 B1B2 B2A2 A2left2"/>
    </vehicle>
    <vehicle id="171" depart="671.00">
        <route edges="top3D3 D3D2 D2D1 D1D0 D0C0 C0B0 B0A0 A0bottom0"/>
    </vehicle>
    <vehicle id="172" depart="677.00">
        <route edges="bottom2C0 C0D0 D0bottom3"/>
    </vehicle>
    <vehicle id="173" depart="677.00">
        <route edges="left3A3 A3B3 B3C3 C3D3 D3D2 D2D1 D1D0 D0right0"/>
    </vehicle>
    <vehicle id="174" depart="678.00">
        <route edges="top1B3 B3C3 C3D3 D3top3"/>
    </vehicle>
    <vehicle id="175" depart="681.00">
        <route edges="left1A1 A1B1 B1B2 B2B3 B3top1"/>
    </vehicle>
    <vehicle id="176" depart="685.00">
        <route edges="bottom0A0 A0B0 B0C0 C0bottom2"/>
    </vehicle>
    <vehicle id="177" depart="687.00">
        <route edges="bottom2C0 C0C1 C1D1 D1D0 D0C0 C0bottom2"/>
    </vehicle>
    <vehicle id="178" depart="690.00">
        <route edges="top1B3 B3C3 C3D3 D3right3"/>
    </vehicle>
    <vehicle id="179" depart="693.00">
        <route edges="top2C3 C3C2 C2B2 B2B3 B3C3 C3top2"/>
    </vehicle>
    <vehicle id="180" depart="696.00">
        <route edges="right0D0 D0C0 C0B0 B0A0 A0A1 A1A2 A2left2"/>
    </vehicle>
    <vehicle id="181" depart="700.00">
        <route edges="left2A2 A2A1 A1A0 A0bottom0"/>
    </vehicle>
    <vehicle id="182" depart="702.00">
        <route edges="left1A1 A1A2 A2A3 A3top0"/>
    </vehicle>
    <vehicle id="183" depart="704.00">
        <route edges="left1A1 A1B1 B1C1 C1D1 D1right1"/>
    </vehicle>
    <vehicle id="184" depart="704.00">
        <route edges="right1D1 D1C1 C1C0 C0bottom2"/>
    </vehicle>
    <vehicle id="185" depart="707.00">
        <route edges="top0A3 A3B3 B3C3 C3D3 D3right3"/>
    </vehicle>
    <vehicle id="186" depart="710.00">
        <route edges="left1A1 A1B1 B1B2 B2C2 C2D2 D2right2"/>
    </vehicle>
    <vehicle id="187" depart="710.00">
        <route edges="top2C3 C3C2 C2C1 C1B1 B1A1 A1left1"/>
    </vehicle>
    <vehicle id="188" depart="713.00">
        <route edges="right0D0 D0D1 D1D2 D2right2"/>
    </vehicle>
    <vehicle id="189" depart="719.00">
        <route edges="left0A0 A0A1 A1A2 A2A3 A3top0"/>
    </vehicle>
    <vehicle id="190" depart="721.00">
        <route edges="top3D3 D3right3"/>
    </vehicle>
    <vehicle id="191" depart="722.00">
        <route edges="bottom3D0 D0C0 C0B0 B0A0 A0left0"/>
    </vehicle>
    <vehicle id="192" depart="725.00">
        <route edges="top3D3 D3C3 C3C2 C2C1 C1C0 C0bottom2"/>
    </vehicle>
    <vehicle id="193" depart="727.00">
        <route edges="left1A1 A1B1 B1C1 C1D1 D1D0 D0bottom3"/>
    </vehicle>
    <vehicle id="194" depart="730.00">
        <route edges="left2A2 A2B2 B2B1 B1A1 A1A2 A2left2"/>
    </vehicle>
    <vehicle id="195" depart="730.00">
        <route edges="right1D1 D1D2 D2D3 D3right3"/>
    </vehicle>
    <vehicle id="196" depart="734.00">
        <route edges="left1A1 A1B1 B1C1 C1D1 D1right1"/>
    </vehicle>
    <vehicle id="197" depart="736.00">
        <route edges="left1A1 A1A2 A2left2"/>
    </vehicle>
    <vehicle id="198" depart="739.00">
        <route edges="right3D3 D3C3 C3C2 C2B2 B2A2 A2left2"/>
    </vehicle>
    <vehicle id="199" depart="740.00">
        <route edges="right3D3 D3D2 D2right2"/>
    </vehicle>
    <vehicle id="200" depart="741.00">
        <route edges="bottom0A0 A0A1 A1left1"/>
    </vehicle>
    <vehicle id="201" depart="742.00">
        <route edges="bottom1B0 B0C0 C0D0 D0bottom3"/>
    </vehicle>
    <vehicle id="202" depart="746.00">
        <route edges="bottom2C0 C0C1 C1D1 D1D0 D0C0 C0bottom2"/>
    </vehicle>
    <vehicle id="203" depart="747.00">
        <route edges="right2D2 D2D3 D3C3 C3B3 B3A3 A3left3"/>
    </vehicle>
    <vehicle id="204" depart="753.00">
        <route edges="top1B3 B3B2 B2B1 B1B0 B0bottom1"/>
    </vehicle>
    <vehicle id="205" depart="756.00">
        <route edges="left2A2 A2B2 B2C2 C2D2 D2D1 D1D0 D0bottom3"/>
    </vehicle>
    <vehicle id="206" depart="756.00">
        <route edges="top2C3 C3C2 C2B2 B2A2 A2left2"/>
    </vehicle>
    <vehicle id="207" depart="765.00">
        <route edges="bottom0A0 A0A1 A1B1 B1B0 B0A0 A0bottom0"/>
    </vehicle>
    <vehicle id="208" depart="766.00">
        <route edges="left1A1 A1A0 A0bottom0"/>
    </vehicle>
    <vehicle id="209" depart="774.00">
        <route edges="right3D3 D3C3 C3C2 C2C1 C1C0 C0B0 B0A0 A0left0"/>
    </vehicle>
    <vehicle id="210" depart="775.00">
        <route edges="left3A3 A3B3 B3C3 C3D3 D3D2 D2D1 D1right1"/>
    </vehicle>
    <vehicle id="211" depart="775.00">
        <route edges="bottom1B0 B0B1 B1A1 A1A2 A2A3 A3top0"/>
    </vehicle>
    <vehicle id="212" depart="779.00">
        <route edges="top2C3 C3C2 C2D2 D2D1 D1D0 D0bottom3"/>
    </vehicle>
    <vehicle id="213" depart="782.00">
        <route edges="bottom1B0 B0C0 C0C1 C1C2 C2C3 C3top2"/>
    </vehicle>
    <vehicle id="214" depart="785.00">
        <route edges="left1A1 A1A2 A2left2"/>
    </vehicle>
    <vehicle id="215" depart="794.00">
        <route edges="left2A2 A2B2 B2B3 B3top1"/>
    </vehicle>
    <vehicle id="216" depart="795.00">
        <route edges="left3A3 A3B3 B3C3 C3D3 D3D2 D2D1 D1D0 D0bottom3"/>
    </vehicle>
    <vehicle id="217" depart="797.00">
        <route edges="right3D3 D3C3 C3C2 C2B2 B2A2 A2left2"/>
    </vehicle>
    <vehicle id="218" depart="799.00">
        <route edges="right2D2 D2C2 C2B2 B2A2 A2A1 A1A0 A0bottom0"/>
    </vehicle>
    <vehicle id="219" depart="801.00">
        <route edges="bottom1B0 B0C0 C0bottom2"/>
    </vehicle>
    <vehicle id="220" depart="802.00">
        <route edges="bottom3D0 D0D1 D1C1 C1B1 B1A1 A1left1"/>
    </vehicle>
    <vehicle id="221" depart="806.00">
        <route edges="right2D2 D2D1 D1right1"/>
    </vehicle>
    <vehicle id="222" depart="811.00">
        <route edges="bottom0A0 A0A1 A1A2 A2B2 B2C2 C2D2 D2right2"/>
    </vehicle>
    <vehicle id="223" depart="814.00">
        <route edges="left3A3 A3B3 B3top1"/>
    </vehicle>
    <vehicle id="224" depart="817.00">
        <route edges="bottom3D0 D0right0"/>
    </vehicle>
    <vehicle id="225" depart="817.00">
        <route edges="right3D3 D3D2 D2D1 D1D0 D0bottom3"/>
    </vehicle>
    <vehicle id="226" depart="819.00">
        <route edges="bottom3D0 D0D1 D1C1 C1B1 B1B2 B2B3 B3top1"/>
    </vehicle>
    <vehicle id="227" depart="824.00">
        <route edges="right1D1 D1D2 D2D3 D3right3"/>
    </vehicle>
    <vehicle id="228" depart="824.00">
        <route edges="top1B3 B3B2 B2C2 C2C1 C1C0 C0bottom2"/>
    </vehicle>
    <vehicle id="229" depart="825.00">
        <route edges="left2A2 A2A3 A3top0"/>
    </vehicle>
    <vehicle id="230" depart="826.00">
        <route edges="top1B3 B3B2 B2B1 B1B0 B0bottom1"/>
    </vehicle>
    <vehicle id="231" depart="826.00">
        <route edges="right1D1 D1C1 C1B1 B1A1 A1A2 A2A3 A3top0"/>
    </vehicle>
    <vehicle id="232" depart="830.00">
        <route edges="bottom1B0 B0C0 C0C1 C1C2 C2C3 C3top2"/>
    </vehicle>
    <vehicle id="233" depart="830.00">
        <route edges="left1A1 A1A0 A0bottom0"/>
    </vehicle>
    <vehicle id="234" depart="835.00">
        <route edges="bottom3D0 D0D1 D1D2 D2D3 D3C3 C3B3 B3A3 A3left3"/>
    </vehicle>
    <vehicle id="235" depart="835.00">
        <route edges="left0A0 A0B0 B0C0 C0bottom2"/>
    </vehicle>
    <vehicle id="236" depart="838.00">
        <route edges="left1A1 A1B1 B1B2 B2B3 B3top1"/>
    </vehicle>
    <vehicle id="237" depart="840.00">
        <route edges="top1B3 B3B2 B2B1 B1B0 B0bottom1"/>
    </vehicle>
    <vehicle id="238" depart="842.00">
        <route edges="bottom1B0 B0C0 C0C1 C1C2 C2C3 C3top2"/>
    </vehicle>
    <vehicle id="239" depart="842.00">
        <route edges="left0A0 A0B0 B0B1 B1C1 C1D1 D1right1"/>
    </vehicle>
    <vehicle id="240" depart="846.00">
        <route edges="bottom1B0 B0B1 B1A1 A1left1"/>
    </vehicle>
    <vehicle id="241" depart="847.00">
        <route edges="left1A1 A1A2 A2left2"/>
    </vehicle>
    <vehicle id="242" depart="850.00">
        <route edges="top1B3 B3C3 C3D3 D3top3"/>
    </vehicle>
    <vehicle id="243" depart="856.00">
        <route edges="left1A1 A1A2 A2left2"/>
    </vehicle>
    <vehicle id="244" depart="858.00">
        <route edges="left2A2 A2A3 A3top0"/>
    </vehicle>
    <vehicle id="245" depart="860.00">
        <route edges="right1D1 D1D0 D0right0"/>
    </vehicle>
    <vehicle id="246" depart="860.00">
        <route edges="top0A3 A3A2 A2left2"/>
    </vehicle>
    <vehicle id="247" depart="861.00">
        <route edges="top0A3 A3A2 A2B2 B2B1 B1B0 B0bottom1"/>
    </vehicle>
    <vehicle id="248" depart="875.00">
        <route edges="bottom3D0 D0D1 D1D2 D2D3 D3right3"/>
    </vehicle>
    <vehicle id="249" depart="882.00">
        <route edges="right2D2 D2C2 C2C1 C1B1 B1A1 A1left1"/>
    </vehicle>
    <vehicle id="250" depart="898.00">
        <route edges="bottom2C0 C0D0 D0bottom3"/>
    </vehicle>
    <vehicle id="251" depart="902.00">
        <route edges="right2D2 D2C2 C2C3 C3D3 D3D2 D2right2"/>
    </vehicle>
    <vehicle id="252" depart="903.00">
        <route edges="left1A1 A1B1 B1B2 B2B3 B3C3 C3D3 D3right3"/>
    </vehicle>
    <vehicle id="253" depart="908.00">
        <route edges="bottom0A0 A0A1 A1A2 A2B2 B2C2 C2D2 D2right2"/>
    </vehicle>
    <vehicle id="254" depart="909.00">
        <route edges="top2C3 C3C2 C2B2 B2A2 A2left2"/>
    </vehicle>
    <vehicle id="255" depart="916.00">
        <route edges="top2C3 C3C2 C2B2 B2A2 A2left2"/>
    </vehicle>
    <vehicle id="256" depart="917.00">
        <route edges="top2C3 C3C2 C2D2 D2D1 D1D0 D0bottom3"/>
    </vehicle>
    <vehicle id="257" depart="918.00">
        <route edges="top2C3 C3B3 B3A3 A3top0"/>
    </vehicle>
    <vehicle id="258" depart="920.00">
        <route edges="top1B3 B3B2 B2C2 C2C1 C1C0 C0bottom2"/>
    </vehicle>
    <vehicle id="259" depart="929.00">
        <route edges="bottom1B0 B0C0 C0bottom2"/>
    </vehicle>
    <vehicle id="260" depart="931.00">
        <route edges="right1D1 D1D0 D0right0"/>
    </vehicle>
    <vehicle id="261" depart="932.00">
        <route edges="left0A0 A0A1 A1A2 A2A3 A3left3"/>
    </vehicle>
    <vehicle id="262" depart="936.00">
        <route edges="left1A1 A1B1 B1C1 C1C2 C2C3 C3top2"/>
    </vehicle>
    <vehicle id="263" depart="937.00">
        <route edges="left1A1 A1A2 A2A3 A3left3"/>
    </vehicle>
    <vehicle id="264" depart="938.00">