<?xml version="1.0" encoding="UTF-8"?>

<!-- generated on Sun May 23 17:12:51 2021 by Eclipse SUMO duarouter Version 1.9.0
<configuration xmlns:xsi="http://www.w3.org/2001/XMLSchema-instance" xsi:noNamespaceSchemaLocation="http://sumo.dlr.de/xsd/duarouterConfiguration.xsd">

    <input>
        <net-file value="grid4x4.net.xml"/>
        <route-files value="./trips/grid4x4_1157.trips.xml"/>
    </input>

    <output>
        <output-file value="./routes/grid4x4_1157.rou.xml"/>
        <alternatives-output value="./routes/grid4x4_1157.rou.alt.xml"/>
    </output>

</configuration>
-->

<routes xmlns:xsi="http://www.w3.org/2001/XMLSchema-instance" xsi:noNamespaceSchemaLocation="http://sumo.dlr.de/xsd/routes_file.xsd">
    <vehicle id="0" depart="0.00">
        <route edges="right1D1 D1D2 D2right2"/>
    </vehicle>
    <vehicle id="1" depart="9.00">
        <route edges="top1B3 B3B2 B2B1 B1A1 A1left1"/>
    </vehicle>
    <vehicle id="2" depart="11.00">
        <route edges="bottom3D0 D0D1 D1D2 D2C2 C2B2 B2A2 A2left2"/>
    </vehicle>
    <vehicle id="3" depart="16.00">
        <route edges="left0A0 A0A1 A1A2 A2left2"/>
    </vehicle>
    <vehicle id="4" depart="23.00">
        <route edges="right1D1 D1C1 C1B1 B1A1 A1A0 A0bottom0"/>
    </vehicle>
    <vehicle id="5" depart="27.00">
        <route edges="top0A3 A3B3 B3C3 C3D3 D3right3"/>
    </vehicle>
    <vehicle id="6" depart="33.00">
        <route edges="right2D2 D2D3 D3C3 C3B3 B3A3 A3left3"/>
    </vehicle>
    <vehicle id="7" depart="44.00">
        <route edges="bottom1B0 B0B1 B1B2 B2B3 B3top1"/>
    </vehicle>
    <vehicle id="8" depart="44.00">
        <route edges="left0A0 A0B0 B0C0 C0D0 D0bottom3"/>
    </vehicle>
    <vehicle id="9" depart="46.00">
        <route edges="top1B3 B3A3 A3top0"/>
    </vehicle>
    <vehicle id="10" depart="63.00">
        <route edges="right1D1 D1D0 D0right0"/>
    </vehicle>
    <vehicle id="11" depart="66.00">
        <route edges="bottom0A0 A0A1 A1B1 B1C1 C1D1 D1right1"/>
    </vehicle>
    <vehicle id="12" depart="77.00">
        <route edges="right1D1 D1D2 D2D3 D3right3"/>
    </vehicle>
    <vehicle id="13" depart="83.00">
        <route edges="top2C3 C3C2 C2C1 C1B1 B1A1 A1left1"/>
    </vehicle>
    <vehicle id="14" depart="99.00">
        <route edges="bottom3D0 D0D1 D1C1 C1B1 B1A1 A1A2 A2A3 A3top0"/>
    </vehicle>
    <vehicle id="15" depart="102.00">
        <route edges="bottom0A0 A0A1 A1A2 A2A3 A3top0"/>
    </vehicle>
    <vehicle id="16" depart="103.00">
        <route edges="right1D1 D1D2 D2D3 D3top3"/>
    </vehicle>
    <vehicle id="17" depart="104.00">
        <route edges="top1B3 B3B2 B2B1 B1A1 A1left1"/>
    </vehicle>
    <vehicle id="18" depart="104.00">
        <route edges="bottom0A0 A0A1 A1A2 A2B2 B2C2 C2D2 D2right2"/>
    </vehicle>
    <vehicle id="19" depart="109.00">
        <route edges="bottom3D0 D0D1 D1D2 D2D3 D3right3"/>
    </vehicle>
    <vehicle id="20" depart="111.00">
        <route edges="bottom1B0 B0C0 C0D0 D0bottom3"/>
    </vehicle>
    <vehicle id="21" depart="123.00">
        <route edges="top1B3 B3B2 B2B1 B1B0 B0C0 C0D0 D0right0"/>
    </vehicle>
    <vehicle id="22" depart="126.00">
        <route edges="left0A0 A0B0 B0C0 C0bottom2"/>
    </vehicle>
    <vehicle id="23" depart="130.00">
        <route edges="right0D0 D0D1 D1D2 D2D3 D3right3"/>
    </vehicle>
    <vehicle id="24" depart="131.00">
        <route edges="top2C3 C3B3 B3A3 A3top0"/>
    </vehicle>
    <vehicle id="25" depart="150.00">
        <route edges="left1A1 A1B1 B1B0 B0A0 A0A1 A1left1"/>
    </vehicle>
    <vehicle id="26" depart="154.00">
        <route edges="top0A3 A3A2 A2B2 B2C2 C2D2 D2right2"/>
    </vehicle>
    <vehicle id="27" depart="165.00">
        <route edges="top2C3 C3D3 D3top3"/>
    </vehicle>
    <vehicle id="28" depart="166.00">
        <route edges="bottom0A0 A0B0 B0C0 C0D0 D0right0"/>
    </vehicle>
    <vehicle id="29" depart="177.00">
        <route edges="top2C3 C3C2 C2C1 C1C0 C0bottom2"/>
    </vehicle>
    <vehicle id="30" depart="181.00">
        <route edges="right0D0 D0D1 D1D2 D2D3 D3right3"/>
    </vehicle>
    <vehicle id="31" depart="188.00">
        <route edges="top0A3 A3A2 A2A1 A1A0 A0bottom0"/>
    </vehicle>
    <vehicle id="32" depart="188.00">
        <route edges="bottom2C0 C0D0 D0D1 D1D2 D2D3 D3top3"/>
    </vehicle>
    <vehicle id="33" depart="193.00">
        <route edges="left1A1 A1B1 B1C1 C1D1 D1D0 D0bottom3"/>
    </vehicle>
    <vehicle id="34" depart="199.00">
        <route edges="bottom1B0 B0C0 C0D0 D0right0"/>
    </vehicle>
    <vehicle id="35" depart="199.00">
        <route edges="left2A2 A2A3 A3left3"/>
    </vehicle>
    <vehicle id="36" depart="203.00">
        <route edges="top3D3 D3D2 D2D1 D1C1 C1B1 B1A1 A1left1"/>
    </vehicle>
    <vehicle id="37" depart="203.00">
        <route edges="right3D3 D3top3"/>
    </vehicle>
    <vehicle id="38" depart="207.00">
        <route edges="left3A3 A3A2 A2left2"/>
    </vehicle>
    <vehicle id="39" depart="212.00">
        <route edges="bottom2C0 C0B0 B0bottom1"/>
    </vehicle>
    <vehicle id="40" depart="213.00">
        <route edges="right1D1 D1D2 D2right2"/>
    </vehicle>
    <vehicle id="41" depart="214.00">
        <route edges="right3D3 D3C3 C3B3 B3A3 A3top0"/>
    </vehicle>
    <vehicle id="42" depart="217.00">
        <route edges="top2C3 C3C2 C2C1 C1C0 C0B0 B0A0 A0left0"/>
    </vehicle>
    <vehicle id="43" depart="222.00">
        <route edges="bottom3D0 D0D1 D1right1"/>
    </vehicle>
    <vehicle id="44" depart="231.00">
        <route edges="bottom1B0 B0C0 C0bottom2"/>
    </vehicle>
    <vehicle id="45" depart="235.00">
        <route edges="left0A0 A0A1 A1A2 A2A3 A3top0"/>
    </vehicle>
    <vehicle id="46" depart="236.00">
        <route edges="bottom0A0 A0A1 A1left1"/>
    </vehicle>
    <vehicle id="47" depart="239.00">
        <route edges="right1D1 D1C1 C1C2 C2D2 D2D1 D1right1"/>
    </vehicle>
    <vehicle id="48" depart="241.00">
        <route edges="top1B3 B3B2 B2B1 B1C1 C1D1 D1right1"/>
    </vehicle>
    <vehicle id="49" depart="244.00">
        <route edges="left0A0 A0B0 B0C0 C0D0 D0D1 D1D2 D2D3 D3top3"/>
    </vehicle>
    <vehicle id="50" depart="256.00">
        <route edges="top2C3 C3C2 C2C1 C1B1 B1A1 A1left1"/>
    </vehicle>
    <vehicle id="51" depart="265.00">
        <route edges="right0D0 D0C0 C0C1 C1C2 C2C3 C3top2"/>
    </vehicle>
    <vehicle id="52" depart="270.00">
        <route edges="top1B3 B3B2 B2B1 B1B0 B0C0 C0D0 D0right0"/>
    </vehicle>
    <vehicle id="53" depart="270.00">
        <route edges="left0A0 A0B0 B0B1 B1B2 B2C2 C2D2 D2right2"/>
    </vehicle>
    <vehicle id="54" depart="273.00">
        <route edges="bottom0A0 A0B0 B0C0 C0D0 D0right0"/>
    </vehicle>
    <vehicle id="55" depart="275.00">
        <route edges="right1D1 D1C1 C1C2 C2D2 D2D1 D1right1"/>
    </vehicle>
    <vehicle id="56" depart="281.00">
        <route edges="bottom3D0 D0right0"/>
    </vehicle>
    <vehicle id="57" depart="281.00">
        <route edges="right2D2 D2C2 C2C1 C1C0 C0B0 B0A0 A0left0"/>
    </vehicle>
    <vehicle id="58" depart="289.00">
        <route edges="top2C3 C3C2 C2C1 C1D1 D1right1"/>
    </vehicle>
    <vehicle id="59" depart="304.00">
        <route edges="right0D0 D0C0 C0B0 B0B1 B1B2 B2B3 B3top1"/>
    </vehicle>
    <vehicle id="60" depart="308.00">
        <route edges="top2C3 C3D3 D3top3"/>
    </vehicle>
    <vehicle id="61" depart="310.00">
        <route edges="right3D3 D3C3 C3C2 C2C1 C1C0 C0B0 B0A0 A0left0"/>
    </vehicle>
    <vehicle id="62" depart="324.00">
        <route edges="left3A3 A3B3 B3C3 C3top2"/>
    </vehicle>
    <vehicle id="63" depart="332.00">
        <route edges="right0D0 D0D1 D1right1"/>
    </vehicle>
    <vehicle id="64" depart="333.00">
        <route edges="right0D0 D0bottom3"/>
    </vehicle>
    <vehicle id="65" depart="342.00">
        <route edges="bottom3D0 D0D1 D1C1 C1B1 B1B2 B2B3 B3top1"/>
    </vehicle>
    <vehicle id="66" depart="345.00">
        <route edges="top3D3 D3D2 D2D1 D1D0 D0C0 C0B0 B0A0 A0bottom0"/>
    </vehicle>
    <vehicle id="67" depart="349.00">
        <route edges="left0A0 A0A1 A1left1"/>
    </vehicle>
    <vehicle id="68" depart="357.00">
        <route edges="right3D3 D3C3 C3C2 C2C1 C1C0 C0bottom2"/>
    </vehicle>
    <vehicle id="69" depart="359.00">
        <route edges="left3A3 A3B3 B3C3 C3D3 D3right3"/>
    </vehicle>
    <vehicle id="70" depart="365.00">
        <route edges="bottom0A0 A0A1 A1A2 A2A3 A3B3 B3C3 C3D3 D3right3"/>
    </vehicle>
    <vehicle id="71" depart="369.00">
        <route edges="top1B3 B3C3 C3top2"/>
    </vehicle>
    <vehicle id="72" depart="371.00">
        <route edges="bottom1B0 B0C0 C0bottom2"/>
    </vehicle>
    <vehicle id="73" depart="373.00">
        <route edges="top1B3 B3B2 B2C2 C2D2 D2right2"/>
    </vehicle>
    <vehicle id="74" depart="375.00">
        <route edges="left2A2 A2A1 A1A0 A0bottom0"/>
    </vehicle>
    <vehicle id="75" depart="380.00">
        <route edges="left3A3 A3B3 B3B2 B2A2 A2A3 A3left3"/>
    </vehicle>
    <vehicle id="76" depart="381.00">
        <route edges="left0A0 A0B0 B0C0 C0bottom2"/>
    </vehicle>
    <vehicle id="77" depart="381.00">
        <route edges="left0A0 A0A1 A1A2 A2left2"/>
    </vehicle>
    <vehicle id="78" depart="381.00">
        <route edges="bottom2C0 C0D0 D0right0"/>
    </vehicle>
    <vehicle id="79" depart="381.00">
        <route edges="right1D1 D1C1 C1C2 C2D2 D2D1 D1right1"/>
    </vehicle>
    <vehicle id="80" depart="382.00">
        <route edges="right2D2 D2D1 D1right1"/>
    </vehicle>
    <vehicle id="81" depart="385.00">
        <route edges="top3D3 D3D2 D2D1 D1D0 D0right0"/>
    </vehicle>
    <vehicle id="82" depart="386.00">
        <route edges="left3A3 A3B3 B3C3 C3D3 D3D2 D2D1 D1D0 D0bottom3"/>
    </vehicle>
    <vehicle id="83" depart="390.00">
        <route edges="top3D3 D3C3 C3top2"/>
    </vehicle>
    <vehicle id="84" depart="397.00">
        <route edges="left1A1 A1B1 B1C1 C1C0 C0bottom2"/>
    </vehicle>
    <vehicle id="85" depart="401.00">
        <route edges="right0D0 D0C0 C0C1 C1C2 C2C3 C3top2"/>
    </vehicle>
    <vehicle id="86" depart="403.00">
        <route edges="bottom0A0 A0B0 B0C0 C0bottom2"/>
    </vehicle>
    <vehicle id="87" depart="409.00">
        <route edges="right1D1 D1C1 C1C2 C2D2 D2D1 D1right1"/>
    </vehicle>
    <vehicle id="88" depart="410.00">
        <route edges="right0D0 D0C0 C0C1 C1D1 D1D0 D0right0"/>
    </vehicle>
    <vehicle id="89" depart="412.00">
        <route edges="bottom1B0 B0B1 B1B2 B2C2 C2D2 D2right2"/>
    </vehicle>
    <vehicle id="90" depart="415.00">
        <route edges="top0A3 A3B3 B3B2 B2A2 A2A3 A3top0"/>
    </vehicle>
    <vehicle id="91" depart="426.00">
        <route edges="bottom0A0 A0A1 A1A2 A2A3 A3left3"/>
    </vehicle>
    <vehicle id="92" depart="427.00">
        <route edges="top2C3 C3B3 B3A3 A3top0"/>
    </vehicle>
    <vehicle id="93" depart="431.00">
        <route edges="right3D3 D3D2 D2D1 D1D0 D0bottom3"/>
    </vehicle>
    <vehicle id="94" depart="432.00">
        <route edges="left3A3 A3B3 B3C3 C3D3 D3D2 D2D1 D1D0 D0bottom3"/>
    </vehicle>
    <vehicle id="95" depart="446.00">
        <route edges="top0A3 A3A2 A2A1 A1A0 A0bottom0"/>
    </vehicle>
    <vehicle id="96" depart="447.00">
        <route edges="bottom3D0 D0D1 D1D2 D2right2"/>
    </vehicle>
    <vehicle id="97" depart="451.00">
        <route edges="bottom0A0 A0B0 B0B1 B1B2 B2B3 B3top1"/>
    </vehicle>
    <vehicle id="98" depart="458.00">
        <route edges="left0A0 A0A1 A1B1 B1B0 B0A0 A0left0"/>
    </vehicle>
    <vehicle id="99" depart="461.00">
        <route edges="top3D3 D3D2 D2C2 C2B2 B2A2 A2left2"/>
    </vehicle>
    <vehicle id="100" depart="478.00">
        <route edges="bottom3D0 D0C0 C0bottom2"/>
    </vehicle>
    <vehicle id="101" depart="482.00">
        <route edges="left0A0 A0B0 B0B1 B1B2 B2B3 B3C3 C3D3 D3right3"/>
    </vehicle>
    <vehicle id="102" depart="482.00">
        <route edges="left2A2 A2B2 B2B1 B1A1 A1A2 A2left2"/>
    </vehicle>
    <vehicle id="103" depart="483.00">
        <route edges="left3A3 A3B3 B3C3 C3D3 D3D2 D2D1 D1right1"/>
    </vehicle>
    <vehicle id="104" depart="489.00">
        <route edges="top1B3 B3B2 B2A2 A2left2"/>
    </vehicle>
    <vehicle id="105" depart="492.00">
        <route edges="left2A2 A2B2 B2C2 C2D2 D2D3 D3top3"/>
    </vehicle>
    <vehicle id="106" depart="494.00">
        <route edges="right1D1 D1D2 D2C2 C2B2 B2A2 A2left2"/>
    </vehicle>
    <vehicle id="107" depart="505.00">
        <route edges="bottom3D0 D0D1 D1C1 C1B1 B1A1 A1A2 A2A3 A3top0"/>
    </vehicle>
    <vehicle id="108" depart="510.00">
        <route edges="top3D3 D3C3 C3top2"/>
    </vehicle>
    <vehicle id="109" depart="517.00">
        <route edges="right0D0 D0C0 C0B0 B0B1 B1B2 B2B3 B3top1"/>
    </vehicle>
    <vehicle id="110" depart="519.00">
        <route edges="left0A0 A0B0 B0C0 C0C1 C1C2 C2C3 C3top2"/>
    </vehicle>
    <vehicle id="111" depart="521.00">
        <route edges="left3A3 A3B3 B3C3 C3top2"/>
    </vehicle>
    <vehicle id="112" depart="534.00">
        <route edges="right2D2 D2D3 D3top3"/>
    </vehicle>
    <vehicle id="113" depart="542.00">
        <route edges="bottom2C0 C0C1 C1C2 C2C3 C3D3 D3right3"/>
    </vehicle>
    <vehicle id="114" depart="547.00">
        <route edges="right3D3 D3D2 D2D1 D1right1"/>
    </vehicle>
    <vehicle id="115" depart="549.00">
        <route edges="top0A3 A3B3 B3C3 C3D3 D3top3"/>
    </vehicle>
    <vehicle id="116" depart="565.00">
        <route edges="left0A0 A0A1 A1left1"/>
    </vehicle>
    <vehicle id="117" depart="569.00">
        <route edges="right2D2 D2D1 D1D0 D0right0"/>
    </vehicle>
    <vehicle id="118" depart="574.00">
        <route edges="top1B3 B3C3 C3D3 D3right3"/>
    </vehicle>
    <vehicle id="119" depart="578.00">
        <route edges="bottom2C0 C0C1 C1C2 C2C3 C3B3 B3A3 A3left3"/>
    </vehicle>
    <vehicle id="120" depart="579.00">
        <route edges="right1D1 D1C1 C1C0 C0B0 B0A0 A0left0"/>
    </vehicle>
    <vehicle id="121" depart="581.00">
        <route edges="left2A2 A2B2 B2B1 B1A1 A1A2 A2left2"/>
    </vehicle>
    <vehicle id="122" depart="583.00">
        <route edges="left2A2 A2A3 A3left3"/>
    </vehicle>
    <vehicle id="123" depart="585.00">
        <route edges="left3A3 A3B3 B3B2 B2B1 B1B0 B0bottom1"/>
    </vehicle>
    <vehicle id="124" depart="586.00">
        <route edges="left1A1 A1B1 B1B2 B2B3 B3top1"/>
    </vehicle>
    <vehicle id="125" depart="591.00">
        <route edges="top3D3 D3D2 D2D1 D1D0 D0C0 C0B0 B0A0 A0left0"/>
    </vehicle>
    <vehicle id="126" depart="609.00">
        <route edges="top3D3 D3D2 D2D1 D1D0 D0right0"/>
    </vehicle>
    <vehicle id="127" depart="611.00">
        <route edges="top0A3 A3B3 B3C3 C3D3 D3right3"/>
    </vehicle>
    <vehicle id="128" depart="612.00">
        <route edges="top2C3 C3B3 B3A3 A3left3"/>
    </vehicle>
    <vehicle id="129" depart="617.00">
        <route edges="right2D2 D2C2 C2C1 C1C0 C0B0 B0A0 A0left0"/>
    </vehicle>
    <vehicle id="130" depart="624.00">
        <route edges="bottom0A0 A0B0 B0bottom1"/>
    </vehicle>
    <vehicle id="131" depart="627.00">
        <route edges="right0D0 D0C0 C0B0 B0A0 A0A1 A1A2 A2A3 A3top0"/>
    </vehicle>
    <vehicle id="132" depart="629.00">
        <route edges="top1B3 B3B2 B2C2 C2D2 D2right2"/>
    </vehicle>
    <vehicle id="133" depart="634.00">
        <route edges="top2C3 C3C2 C2C1 C1C0 C0B0 B0A0 A0bottom0"/>
    </vehicle>
    <vehicle id="134" depart="635.00">
        <route edges="bottom1B0 B0C0 C0D0 D0bottom3"/>
    </vehicle>
    <vehicle id="135" depart="637.00">
        <route edges="top1B3 B3C3 C3D3 D3right3"/>
    </vehicle>
    <vehicle id="136" depart="641.00">
        <route edges="top2C3 C3C2 C2D2 D2D1 D1D0 D0bottom3"/>
    </vehicle>
    <vehicle id="137" depart="642.00">
        <route edges="top0A3 A3B3 B3C3 C3D3 D3right3"/>
    </vehicle>
    <vehicle id="138" depart="652.00">
        <route edges="top2C3 C3C2 C2B2 B2B3 B3C3 C3top2"/>
    </vehicle>
    <vehicle id="139" depart="655.00">
        <route edges="bottom1B0 B0A0 A0bottom0"/>
    </vehicle>
    <vehicle id="140" depart="662.00">
        <route edges="bottom1B0 B0B1 B1B2 B2A2 A2left2"/>
    </vehicle>
    <vehicle id="141" depart="664.00">
        <route edges="left3A3 A3A2 A2A1 A1A0 A0bottom0"/>
    </vehicle>
    <vehicle id="142" depart="670.00">
        <route edges="left3A3 A3B3 B3C3 C3D3 D3top3"/>
    </vehicle>
    <vehicle id="143" depart="673.00">
        <route edges="left0A0 A0B0 B0C0 C0bottom2"/>
    </vehicle>
    <vehicle id="144" depart="675.00">
        <route edges="bottom2C0 C0C1 C1C2 C2C3 C3D3 D3right3"/>
    </vehicle>
    <vehicle id="145" depart="677.00">
        <route edges="top1B3 B3B2 B2B1 B1B0 B0bottom1"/>
    </vehicle>
    <vehicle id="146" depart="682.00">
        <route edges="bottom2C0 C0B0 B0A0 A0left0"/>
    </vehicle>
    <vehicle id="147" depart="685.00">
        <route edges="top0A3 A3A2 A2B2 B2C2 C2D2 D2right2"/>
    </vehicle>
    <vehicle id="148" depart="686.00">
        <route edges="bottom3D0 D0C0 C0bottom2"/>
    </vehicle>
    <vehicle id="149" depart="693.00">
        <route edges="right0D0 D0D1 D1D2 D2right2"/>
    </vehicle>
    <vehicle id="150" depart="700.00">
        <route edges="left0A0 A0B0 B0bottom1"/>
    </vehicle>
    <vehicle id="151" depart="701.00">
        <route edges="top2C3 C3C2 C2C1 C1C0 C0D0 D0right0"/>
    </vehicle>
    <vehicle id="152" depart="704.00">
        <route edges="left3A3 A3B3 B3C3 C3top2"/>
    </vehicle>
    <vehicle id="153" depart="705.00">
        <route edges="left3A3 A3B3 B3C3 C3D3 D3right3"/>
    </vehicle>
    <vehicle id="154" depart="708.00">
        <route edges="right2D2 D2D1 D1right1"/>
    </vehicle>
    <vehicle id="155" depart="710.00">
        <route edges="right3D3 D3D2 D2D1 D1right1"/>
    </vehicle>
    <vehicle id="156" depart="719.00">
        <route edges="right0D0 D0C0 C0B0 B0A0 A0left0"/>
    </vehicle>
    <vehicle id="157" depart="721.00">
        <route edges="top3D3 D3C3 C3B3 B3A3 A3top0"/>
    </vehicle>
    <vehicle id="158" depart="723.00">
        <route edges="bottom2C0 C0B0 B0A0 A0left0"/>
    </vehicle>
    <vehicle id="159" depart="730.00">
        <route edges="top3D3 D3D2 D2right2"/>
    </vehicle>
    <vehicle id="160" depart="735.00">
        <route edges="right2D2 D2C2 C2C3 C3top2"/>
    </vehicle>
    <vehicle id="161" depart="738.00">
        <route edges="top0A3 A3B3 B3C3 C3D3 D3right3"/>
    </vehicle>
    <vehicle id="162" depart="746.00">
        <route edges="left3A3 A3B3 B3B2 B2A2 A2A3 A3left3"/>
    </vehicle>
    <vehicle id="163" depart="747.00">
        <route edges="bottom3D0 D0D1 D1C1 C1B1 B1A1 A1left1"/>
    </vehicle>
    <vehicle id="164" depart="748.00">
        <route edges="left2A2 A2B2 B2B1 B1A1 A1A2 A2left2"/>
    </vehicle>
    <vehicle id="165" depart="750.00">
        <route edges="left1A1 A1B1 B1B2 B2B3 B3C3 C3D3 D3right3"/>
    </vehicle>
    <vehicle id="166" depart="761.00">
        <route edges="left3A3 A3A2 A2left2"/>
    </vehicle>
    <vehicle id="167" depart="762.00">
        <route edges="right0D0 D0C0 C0B0 B0A0 A0A1 A1A2 A2left2"/>
    </vehicle>
    <vehicle id="168" depart="763.00">
        <route edges="top0A3 A3A2 A2left2"/>
    </vehicle>
    <vehicle id="169" depart="767.00">
        <route edges="right3D3 D3C3 C3C2 C2C1 C1C0 C0bottom2"/>
    </vehicle>
    <vehicle id="170" depart="773.00">
        <route edges="bottom1B0 B0B1 B1C1 C1D1 D1right1"/>
    </vehicle>
    <vehicle id="171" depart="774.00">
        <route edges="right3D3 D3C3 C3C2 C2C1 C1C0 C0bottom2"/>
    </vehicle>
    <vehicle id="172" depart="776.00">
        <route edges="right0D0 D0D1 D1D2 D2right2"/>
    </vehicle>
    <vehicle id="173" depart="777.00">
        <route edges="left2A2 A2B2 B2B3 B3C3 C3D3 D3right3"/>
    </vehicle>
    <vehicle id="174" depart="778.00">
        <route edges="top0A3 A3left3"/>
    </vehicle>
    <vehicle id="175" depart="782.00">
        <route edges="bottom2C0 C0B0 B0A0 A0left0"/>
    </vehicle>
    <vehicle id="176" depart="791.00">
        <route edges="bottom3D0 D0C0 C0B0 B0bottom1"/>
    </vehicle>
    <vehicle id="177" depart="793.00">
        <route edges="bottom1B0 B0B1 B1B2 B2C2 C2D2 D2right2"/>
    </vehicle>
    <vehicle id="178" depart="795.00">
        <route edges="left1A1 A1B1 B1C1 C1D1 D1D2 D2D3 D3top3"/>
    </vehicle>
    <vehicle id="179" depart="796.00">
        <route edges="right1D1 D1C1 C1C2 C2D2 D2D1 D1right1"/>
    </vehicle>
    <vehicle id="180" depart="803.00">
        <route edges="right0D0 D0C0 C0B0 B0A0 A0A1 A1A2 A2left2"/>
    </vehicle>
    <vehicle id="181" depart="804.00">
        <route edges="right0D0 D0C0 C0B0 B0A0 A0A1 A1A2 A2A3 A3top0"/>
    </vehicle>
    <vehicle id="182" depart="809.00">
        <route edges="top1B3 B3B2 B2B1 B1B0 B0A0 A0left0"/>
    </vehicle>
    <vehicle id="183" depart="814.00">
        <route edges="bottom0A0 A0A1 A1B1 B1B0 B0A0 A0bottom0"/>
    </vehicle>
    <vehicle id="184" depart="816.00">
        <route edges="right0D0 D0D1 D1right1"/>
    </vehicle>
    <vehicle id="185" depart="828.00">
        <route edges="right1D1 D1C1 C1C0 C0B0 B0A0 A0left0"/>
    </vehicle>
    <vehicle id="186" depart="830.00">
        <route edges="left2A2 A2B2 B2C2 C2D2 D2D1 D1D0 D0right0"/>
    </vehicle>
    <vehicle id="187" depart="834.00">
        <route edges="left2A2 A2A3 A3top0"/>
    </vehicle>
    <vehicle id="188" depart="834.00">
        <route edges="left0A0 A0A1 A1A2 A2A3 A3top0"/>
    </vehicle>
    <vehicle id="189" depart="834.00">
        <route edges="left0A0 A0B0 B0B1 B1C1 C1D1 D1right1"/>
    </vehicle>
    <vehicle id="190" depart="838.00">
        <route edges="bottom3D0 D0right0"/>
    </vehicle>
    <vehicle id="191" depart="839.00">
        <route edges="left2A2 A2B2 B2B3 B3top1"/>
    </vehicle>
    <vehicle id="192" depart="840.00">
        <route edges="top2C3 C3C2 C2B2 B2A2 A2left2"/>
    </vehicle>
    <vehicle id="193" depart="843.00">
        <route edges="left3A3 A3A2 A2A1 A1left1"/>
    </vehicle>
    <vehicle id="194" depart="858.00">
        <route edges="left2A2 A2B2 B2C2 C2D2 D2right2"/>
    </vehicle>
    <vehicle id="195" depart="859.00">
        <route edges="bottom0A0 A0A1 A1A2 A2A3 A3B3 B3C3 C3D3 D3right3"/>
    </vehicle>
    <vehicle id="196" depart="860.00">
        <route edges="bottom3D0 D0D1 D1D2 D2right2"/>
    </vehicle>
    <vehicle id="197" depart="862.00">
        <route edges="bottom1B0 B0B1 B1A1 A1left1"/>
    </vehicle>
    <vehicle id="198" depart="865.00">
        <route edges="right2D2 D2D3 D3right3"/>
    </vehicle>
    <vehicle id="199" depart="866.00">
        <route edges="left0A0 A0B0 B0B1 B1B2 B2B3 B3top1"/>
    </vehicle>
    <vehicle id="200" depart="871.00">
        <route edges="top3D3 D3C3 C3top2"/>
    </vehicle>
    <vehicle id="201" depart="871.00">
        <route edges="top2C3 C3C2 C2C1 C1C0 C0bottom2"/>
    </vehicle>
    <vehicle id="202" depart="881.00">
        <route edges="bottom1B0 B0B1 B1A1 A1A2 A2A3 A3top0"/>
    </vehicle>
    <vehicle id="203" depart="882.00">
        <route edges="top0A3 A3A2 A2B2 B2C2 C2D2 D2right2"/>
    </vehicle>
    <vehicle id="204" depart="886.00">
        <route edges="top3D3 D3D2 D2D1 D1D0 D0bottom3"/>
    </vehicle>
    <vehicle id="205" depart="891.00">
        <route edges="left0A0 A0bottom0"/>
    </vehicle>
    <vehicle id="206" depart="896.00">
        <route edges="bottom3D0 D0right0"/>
    </vehicle>
    <vehicle id="207" depart="898.00">
        <route edges="bottom2C0 C0D0 D0bottom3"/>
    </vehicle>
    <vehicle id="208" depart="901.00">
        <route edges="left1A1 A1B1 B1C1 C1D1 D1D0 D0bottom3"/>
    </vehicle>
    <vehicle id="209" depart="904.00">
        <route edges="top2C3 C3C2 C2B2 B2B3 B3C3 C3top2"/>
    </vehicle>
    <vehicle id="210" depart="906.00">
        <route edges="right1D1 D1D2 D2C2 C2B2 B2A2 A2left2"/>
    </vehicle>
    <vehicle id="211" depart="908.00">
        <route edges="bottom3D0 D0D1 D1D2 D2D3 D3right3"/>
    </vehicle>
    <vehicle id="212" depart="909.00">
        <route edges="bottom2C0 C0C1 C1C2 C2C3 C3B3 B3A3 A3left3"/>
    </vehicle>
    <vehicle id="213" depart="917.00">
        <route edges="top3D3 D3D2 D2D1 D1C1 C1B1 B1A1 A1left1"/>
    </vehicle>
    <vehicle id="214" depart="920.00">
        <route edges="bottom3D0 D0D1 D1D2 D2right2"/>
    </vehicle>
    <vehicle id="215" depart="922.00">
        <route edges="bottom2C0 C0D0 D0D1 D1D2 D2D3 D3top3"/>
    </vehicle>
    <vehicle id="216" depart="924.00">
        <route edges="right3D3 D3C3 C3C2 C2C1 C1C0 C0B0 B0A0 A0left0"/>
    </vehicle>
    <vehicle id="217" depart="932.00">
        <route edges="right0D0 D0C0 C0bottom2"/>
    </vehicle>
    <vehicle id="218" depart="932.00">
        <route edges="right0D0 D0C0 C0B0 B0bottom1"/>
    </vehicle>
    <vehicle id="219" depart="934.00">
        <route edges="right1D1 D1C1 C1C2 C2D2 D2D1 D1right1"/>
    </vehicle>
    <vehicle id="220" depart="940.00">
        <route edges="bottom0A0 A0A1 A1A2 A2A3 A3B3 B3C3 C3D3 D3top3"/>
    </vehicle>
    <vehicle id="221" depart="945.00">
        <route edges="top3D3 D3C3 C3B3 B3A3 A3top0"/>
    </vehicle>
    <vehicle id="222" depart="945.00">
        <route edges="right3D3 D3C3 C3B3 B3A3 A3A2 A2A1 A1A0 A0bottom0"/>
    </vehicle>
    <vehicle id="223" depart="946.00">
        <route edges="right1D1 D1C1 C1B1 B1B2 B2B3 B3top1"/>
    </vehicle>
    <vehicle id="224" depart="947.00">
        <route edges="left2A2 A2B2 B2C2 C2D2 D2right2"/>
    </vehicle>
    <vehicle id="225" depart="949.00">
        <route edges="right1D1 D1D2 D2D3 D3right3"/>
    </vehicle>
    <vehicle id="226" depart="953.00">
        <route edges="bottom2C0 C0B0 B0bottom1"/>
    </vehicle>
    <vehicle id="227" depart="955.00">
        <route edges="right2D2 D2D3 D3C3 C3B3 B3A3 A3left3"/>
    </vehicle>
    <vehicle id="228" depart="962.00">
        <route edges="right1D1 D1D0 D0right0"/>
    </vehicle>
    <vehicle id="229" depart="964.00">
        <route edges="top1B3 B3B2 B2B1 B1B0 B0A0 A0left0"/>
    </vehicle>
    <vehicle id="230" depart="968.00">
        <route edges="right0D0 D0C0 C0C1 C1C2 C2C3 C3top2"/>
    </vehicle>
    <vehicle id="231" depart="969.00">
        <route edges="right2D2 D2C2 C2C3 C3top2"/>
    </vehicle>
    <vehicle id="232" depart="978.00">
        <route edges="left0A0 A0A1 A1A2 A2A3 A3top0"/>
    </vehicle>
    <vehicle id="233" depart="981.00">
        <route edges="bottom0A0 A0A1 A1A2 A2A3 A3top0"/>
    </vehicle>
    <vehicle id="234" depart="981.00">
        <route edges="left1A1 A1B1 B1B0 B0bottom1"/>
    </vehicle>
    <vehicle id="235" depart="982.00">
        <route edges="left0A0 A0B0 B0C0 C0D0 D0right0"/>
    </vehicle>
    <vehicle id="236" depart="982.00">
        <route edges="bottom1B0 B0B1 B1C1 C1C0 C0B0 B0bottom1"/>
    </vehicle>
    <vehicle id="237" depart="983.00">
        <route edges="left3A3 A3top0"/>
    </vehicle>
    <vehicle id="238" depart="984.00">
        <route edges="left0A0 A0B0 B0B1 B1B2 B2C2 C2D2 D2right2"/>
    </vehicle>
    <vehicle id="239" depart="989.00">
        <route edges="right2D2 D2C2 C2B2 B2A2 A2A3 A3top0"/>
    </vehicle>
    <vehicle id="240" depart="992.00">
        <route edges="left3A3 A3B3 B3B2 B2A2 A2A3 A3left3"/>
    </vehicle>
    <vehicle id="241" depart="993.00">
        <route edges="right2D2 D2C2 C2B2 B2A2 A2A3 A3top0"/>
    </vehicle>
    <vehicle id="242" depart="995.00">
        <route edges="top0A3 A3B3 B3B2 B2A2 A2A3 A3top0"/>
    </vehicle>
    <vehicle id="243" depart="996.00">
        <route edges="bottom3D0 D0C0 C0bottom2"/>
    </vehicle>
    <vehicle id="244" depart="997.00">
        <route edges="top1B3 B3A3 A3A2 A2A1 A1A0 A0bottom0"/>
    </vehicle>
    <vehicle id="245" depart="1002.00">
        <route edges="right1D1 D1C1 C1B1 B1A1 A1A0 A0bottom0"/>
    </vehicle>
    <vehicle id="246" depart="1004.00">
        <route edges="bottom2C0 C0C1 C1B1 B1A1 A1left1"/>
    </vehicle>
    <vehicle id="247" depart="1006.00">
        <route edges="right3D3 D3C3 C3C2 C2C1 C1B1 B1A1 A1left1"/>
    </vehicle>
    <vehicle id="248" depart="1006.00">
        <route edges="top3D3 D3D2 D2D1 D1D0 D0right0"/>
    </vehicle>
    <vehicle id="249" depart="1008.00">
        <route edges="top3D3 D3D2 D2D1 D1D0 D0right0"/>
    </vehicle>
    <vehicle id="250" depart="1011.00">
        <route edges="right2D2 D2C2 C2C3 C3top2"/>
    </vehicle>
    <vehicle id="251" depart="1013.00">
        <route edges="left3A3 A3B3 B3C3 C3D3 D3D2 D2D1 D1D0 D0right0"/>
    </vehicle>
    <vehicle id="252" depart="1015.00">
        <route edges="right3D3 D3C3 C3top2"/>
    </vehicle>
    <vehicle id="253" depart="1016.00">
        <route edges="right3D3 D3D2 D2D1 D1right1"/>
    </vehicle>
    <vehicle id="254" depart="1025.00">
        <route edges="bottom1B0 B0B1 B1B2 B2B3 B3top1"/>
    </vehicle>
    <vehicle id="255" depart="1026.00">
        <route edges="top3D3 D3D2 D2D1 D1C1 C1B1 B1A1 A1left1"/>
    </vehicle>
    <vehicle id="256" depart="1033.00">
        <route edges="left0A0 A0A1 A1B1 B1B0 B0A0 A0left0"/>
    </vehicle>
    <vehicle id="257" depart="1041.00">
        <route edges="top0A3 A3A2 A2B2 B2C2 C2C1 C1C0 C0bottom2"/>
    </vehicle>
    <vehicle id="258" depart="1043.00">
        <route edges="bottom3D0 D0C0 C0B0 B0A0 A0bottom0"/>
    </vehicle>
    <vehicle id="259" depart="1047.00">
        <route edges="top1B3 B3A3 A3top0"/>
    </vehicle>
    <vehicle id="260" depart="1048.00">
        <route edges="right0D0 D0C0 C0B0 B0A0 A0A1 A1A2 A2left2"/>
    </vehicle>
    <vehicle id="261" depart="1049.00">
        <route edges="right1D1 D1C1 C1B1 B1B0 B0bottom1"/>
    </vehicle>
    <vehicle id="262" depart="1054.00">
        <route edges="bottom2C0 C0B0 B0A0 A0bottom0"/>
    </vehicle>
    <vehicle id="263" depart="1059.00">